
#################################################################
RUNNING LOCAL PREDICTOR WITH SIZE=64 AND COUNTER=1
ModuleNotFoundError: No module named 'common'

At:
  ooo_core.py(58): <module>
  src/python/m5/main.py(675): main
gem5 Simulator System.  https://www.gem5.org
gem5 is copyrighted software; use the --copyright option for details.

gem5 version 24.1.0.2
gem5 compiled Mar 17 2025 10:51:38
gem5 started Mar 21 2025 16:14:00
gem5 executing on DESKTOP-64ACR4L, pid 5053
command line: /home/teravyte/gem5/build/RISCV/gem5.opt ooo_core.py --localPredictorSize=64 --localCtrBits=1 /home/teravyte/gapbs/rv64_bfs


#################################################################
RUNNING LOCAL PREDICTOR WITH SIZE=128 AND COUNTER=1
ModuleNotFoundError: No module named 'common'

At:
  ooo_core.py(58): <module>
  src/python/m5/main.py(675): main
gem5 Simulator System.  https://www.gem5.org
gem5 is copyrighted software; use the --copyright option for details.

gem5 version 24.1.0.2
gem5 compiled Mar 17 2025 10:51:38
gem5 started Mar 21 2025 16:14:00
gem5 executing on DESKTOP-64ACR4L, pid 5058
command line: /home/teravyte/gem5/build/RISCV/gem5.opt ooo_core.py --localPredictorSize=128 --localCtrBits=1 /home/teravyte/gapbs/rv64_bfs


#################################################################
RUNNING LOCAL PREDICTOR WITH SIZE=256 AND COUNTER=1
ModuleNotFoundError: No module named 'common'

At:
  ooo_core.py(58): <module>
  src/python/m5/main.py(675): main
gem5 Simulator System.  https://www.gem5.org
gem5 is copyrighted software; use the --copyright option for details.

gem5 version 24.1.0.2
gem5 compiled Mar 17 2025 10:51:38
gem5 started Mar 21 2025 16:14:00
gem5 executing on DESKTOP-64ACR4L, pid 5063
command line: /home/teravyte/gem5/build/RISCV/gem5.opt ooo_core.py --localPredictorSize=256 --localCtrBits=1 /home/teravyte/gapbs/rv64_bfs


#################################################################
RUNNING LOCAL PREDICTOR WITH SIZE=512 AND COUNTER=1
ModuleNotFoundError: No module named 'common'

At:
  ooo_core.py(58): <module>
  src/python/m5/main.py(675): main
gem5 Simulator System.  https://www.gem5.org
gem5 is copyrighted software; use the --copyright option for details.

gem5 version 24.1.0.2
gem5 compiled Mar 17 2025 10:51:38
gem5 started Mar 21 2025 16:14:00
gem5 executing on DESKTOP-64ACR4L, pid 5074
command line: /home/teravyte/gem5/build/RISCV/gem5.opt ooo_core.py --localPredictorSize=512 --localCtrBits=1 /home/teravyte/gapbs/rv64_bfs


#################################################################
RUNNING LOCAL PREDICTOR WITH SIZE=1024 AND COUNTER=1
ModuleNotFoundError: No module named 'common'

At:
  ooo_core.py(58): <module>
  src/python/m5/main.py(675): main
gem5 Simulator System.  https://www.gem5.org
gem5 is copyrighted software; use the --copyright option for details.

gem5 version 24.1.0.2
gem5 compiled Mar 17 2025 10:51:38
gem5 started Mar 21 2025 16:14:01
gem5 executing on DESKTOP-64ACR4L, pid 5079
command line: /home/teravyte/gem5/build/RISCV/gem5.opt ooo_core.py --localPredictorSize=1024 --localCtrBits=1 /home/teravyte/gapbs/rv64_bfs


#################################################################
RUNNING LOCAL PREDICTOR WITH SIZE=2048 AND COUNTER=1
ModuleNotFoundError: No module named 'common'

At:
  ooo_core.py(58): <module>
  src/python/m5/main.py(675): main
gem5 Simulator System.  https://www.gem5.org
gem5 is copyrighted software; use the --copyright option for details.

gem5 version 24.1.0.2
gem5 compiled Mar 17 2025 10:51:38
gem5 started Mar 21 2025 16:14:01
gem5 executing on DESKTOP-64ACR4L, pid 5084
command line: /home/teravyte/gem5/build/RISCV/gem5.opt ooo_core.py --localPredictorSize=2048 --localCtrBits=1 /home/teravyte/gapbs/rv64_bfs


#################################################################
RUNNING LOCAL PREDICTOR WITH SIZE=4096 AND COUNTER=1
terminate called after throwing an instance of 'pybind11::error_already_set'
  what():  KeyboardInterrupt: <EMPTY MESSAGE>

At:
  <string>(55): add_module
  <string>(93): install

Program aborted

--- BEGIN LIBC BACKTRACE ---
/home/teravyte/gem5/build/RISCV/gem5.opt(_ZN4gem515print_backtraceEv+0x30)[0x557276b23660]
/home/teravyte/gem5/build/RISCV/gem5.opt(_ZN4gem512abortHandlerEi+0x4c)[0x557276b49f7c]
/lib/x86_64-linux-gnu/libc.so.6(+0x45330)[0x7f0598ecb330]
/lib/x86_64-linux-gnu/libc.so.6(pthread_kill+0x11c)[0x7f0598f24b2c]
/lib/x86_64-linux-gnu/libc.so.6(gsignal+0x1e)[0x7f0598ecb27e]
/lib/x86_64-linux-gnu/libc.so.6(abort+0xdf)[0x7f0598eae8ff]
/lib/x86_64-linux-gnu/libstdc++.so.6(+0xa5ff5)[0x7f0599254ff5]
/lib/x86_64-linux-gnu/libstdc++.so.6(+0xbb0da)[0x7f059926a0da]
/lib/x86_64-linux-gnu/libstdc++.so.6(_ZSt10unexpectedv+0x0)[0x7f0599254a55]
/lib/x86_64-linux-gnu/libstdc++.so.6(+0xbb391)[0x7f059926a391]
/home/teravyte/gem5/build/RISCV/gem5.opt(+0xf5da49)[0x557275470a49]
/home/teravyte/gem5/build/RISCV/gem5.opt(main+0x1c1)[0x557275335721]
/lib/x86_64-linux-gnu/libc.so.6(+0x2a1ca)[0x7f0598eb01ca]
/lib/x86_64-linux-gnu/libc.so.6(__libc_start_main+0x8b)[0x7f0598eb028b]
/home/teravyte/gem5/build/RISCV/gem5.opt(_start+0x25)[0x55727533c135]
--- END LIBC BACKTRACE ---
For more info on how to address this issue, please visit https://www.gem5.org/documentation/general_docs/common-errors/ 


#################################################################
RUNNING LOCAL PREDICTOR WITH SIZE=8192 AND COUNTER=1
ModuleNotFoundError: No module named 'common'

At:
  ooo_core.py(58): <module>
  src/python/m5/main.py(675): main
gem5 Simulator System.  https://www.gem5.org
gem5 is copyrighted software; use the --copyright option for details.

gem5 version 24.1.0.2
gem5 compiled Mar 17 2025 10:51:38
gem5 started Mar 21 2025 16:14:01
gem5 executing on DESKTOP-64ACR4L, pid 5096
command line: /home/teravyte/gem5/build/RISCV/gem5.opt ooo_core.py --localPredictorSize=8192 --localCtrBits=1 /home/teravyte/gapbs/rv64_bfs


#################################################################
RUNNING LOCAL PREDICTOR WITH SIZE=16384 AND COUNTER=1
ModuleNotFoundError: No module named 'common'

At:
  ooo_core.py(58): <module>
  src/python/m5/main.py(675): main
gem5 Simulator System.  https://www.gem5.org
gem5 is copyrighted software; use the --copyright option for details.

gem5 version 24.1.0.2
gem5 compiled Mar 17 2025 10:51:38
gem5 started Mar 21 2025 16:14:01
gem5 executing on DESKTOP-64ACR4L, pid 5101
command line: /home/teravyte/gem5/build/RISCV/gem5.opt ooo_core.py --localPredictorSize=16384 --localCtrBits=1 /home/teravyte/gapbs/rv64_bfs

