
#################################################################
RUNNING LOCAL PREDICTOR WITH SIZE=64 AND LOCAL CTRL BITS=4 AND CHOICE PREDICTOR SIZE=1 AND CHOICE CTRL BITS=4 AND GLOBAL PREDICTOR SIZE=1 AND GLOBAL CTRL BITS=4 AND LOCAL HISTORY TABLE SIZE=1
Global frequency set at 1000000000000 ticks per second
src/mem/dram_interface.cc:690: warn: DRAM device capacity (8192 Mbytes) does not match the address range assigned (128 Mbytes)
src/arch/riscv/isa.cc:279: info: RVV enabled, VLEN = 256 bits, ELEN = 64 bits
src/base/statistics.hh:279: warn: One of the stats is a legacy stat. Legacy stat is a stat that does not belong to any statistics::Group. Legacy stat is deprecated.
system.remote_gdb: Listening for connections on port 7000
gem5 Simulator System.  https://www.gem5.org
gem5 is copyrighted software; use the --copyright option for details.

gem5 version 24.1.0.2
gem5 compiled Mar 20 2025 02:28:21
gem5 started Mar 20 2025 10:58:21
gem5 executing on d5ae7109ba13, pid 6761
command line: /home/gem5/build/RISCV/gem5.opt ooo_core.py --localPredictorSize=64 --localCtrBits=4 --choicePredictorSize=1 --choiceCtrBits=4 --globalPredictorSize=1 --globalCtrBits=4 --localHistoryTableSize=1 /home/lab2/gapbs/rv64_bfs

Beginning simulation!
src/sim/simulate.cc:199: info: Entering event queue @ 0.  Starting simulation...
src/sim/syscall_emul.cc:97: warn: ignoring syscall set_robust_list(...)
      (further warnings will be suppressed)
src/sim/syscall_emul.hh:1117: warn: readlink() called on '/proc/self/exe' may yield unexpected results in various settings.
      Returning '/home/lab2/gapbs/rv64_bfs'
src/sim/mem_state.cc:448: info: Increasing stack size by one page.
src/sim/syscall_emul.cc:86: warn: ignoring syscall mprotect(...)
src/sim/mem_state.cc:448: info: Increasing stack size by one page.
No graph input specified. (Use -h for help)
Exiting @ tick 561668500 because exiting with last active thread context
system.cpu.branchPred.committed_0::DirectCond       170025     70.53%     85.59% # Number of branches finally committed  (Count)
system.cpu.branchPred.mispredicted_0::DirectCond        10593     89.31%     98.08% # Number of committed branches that were mispredicted. (Count)

#################################################################
RUNNING LOCAL PREDICTOR WITH SIZE=128 AND LOCAL CTRL BITS=4 AND CHOICE PREDICTOR SIZE=1 AND CHOICE CTRL BITS=4 AND GLOBAL PREDICTOR SIZE=1 AND GLOBAL CTRL BITS=4 AND LOCAL HISTORY TABLE SIZE=1
Global frequency set at 1000000000000 ticks per second
src/mem/dram_interface.cc:690: warn: DRAM device capacity (8192 Mbytes) does not match the address range assigned (128 Mbytes)
src/arch/riscv/isa.cc:279: info: RVV enabled, VLEN = 256 bits, ELEN = 64 bits
src/base/statistics.hh:279: warn: One of the stats is a legacy stat. Legacy stat is a stat that does not belong to any statistics::Group. Legacy stat is deprecated.
system.remote_gdb: Listening for connections on port 7000
gem5 Simulator System.  https://www.gem5.org
gem5 is copyrighted software; use the --copyright option for details.

gem5 version 24.1.0.2
gem5 compiled Mar 20 2025 02:28:21
gem5 started Mar 20 2025 10:58:23
gem5 executing on d5ae7109ba13, pid 6770
command line: /home/gem5/build/RISCV/gem5.opt ooo_core.py --localPredictorSize=128 --localCtrBits=4 --choicePredictorSize=1 --choiceCtrBits=4 --globalPredictorSize=1 --globalCtrBits=4 --localHistoryTableSize=1 /home/lab2/gapbs/rv64_bfs

Beginning simulation!
src/sim/simulate.cc:199: info: Entering event queue @ 0.  Starting simulation...
src/sim/syscall_emul.cc:97: warn: ignoring syscall set_robust_list(...)
      (further warnings will be suppressed)
src/sim/syscall_emul.hh:1117: warn: readlink() called on '/proc/self/exe' may yield unexpected results in various settings.
      Returning '/home/lab2/gapbs/rv64_bfs'
src/sim/mem_state.cc:448: info: Increasing stack size by one page.
src/sim/syscall_emul.cc:86: warn: ignoring syscall mprotect(...)
src/sim/mem_state.cc:448: info: Increasing stack size by one page.
No graph input specified. (Use -h for help)
Exiting @ tick 567837000 because exiting with last active thread context
system.cpu.branchPred.committed_0::DirectCond       170025     70.53%     85.59% # Number of branches finally committed  (Count)
system.cpu.branchPred.mispredicted_0::DirectCond        14169     91.67%     98.52% # Number of committed branches that were mispredicted. (Count)

#################################################################
RUNNING LOCAL PREDICTOR WITH SIZE=256 AND LOCAL CTRL BITS=4 AND CHOICE PREDICTOR SIZE=1 AND CHOICE CTRL BITS=4 AND GLOBAL PREDICTOR SIZE=1 AND GLOBAL CTRL BITS=4 AND LOCAL HISTORY TABLE SIZE=1
Global frequency set at 1000000000000 ticks per second
src/mem/dram_interface.cc:690: warn: DRAM device capacity (8192 Mbytes) does not match the address range assigned (128 Mbytes)
src/arch/riscv/isa.cc:279: info: RVV enabled, VLEN = 256 bits, ELEN = 64 bits
src/base/statistics.hh:279: warn: One of the stats is a legacy stat. Legacy stat is a stat that does not belong to any statistics::Group. Legacy stat is deprecated.
system.remote_gdb: Listening for connections on port 7000
gem5 Simulator System.  https://www.gem5.org
gem5 is copyrighted software; use the --copyright option for details.

gem5 version 24.1.0.2
gem5 compiled Mar 20 2025 02:28:21
gem5 started Mar 20 2025 10:58:25
gem5 executing on d5ae7109ba13, pid 6779
command line: /home/gem5/build/RISCV/gem5.opt ooo_core.py --localPredictorSize=256 --localCtrBits=4 --choicePredictorSize=1 --choiceCtrBits=4 --globalPredictorSize=1 --globalCtrBits=4 --localHistoryTableSize=1 /home/lab2/gapbs/rv64_bfs

Beginning simulation!
src/sim/simulate.cc:199: info: Entering event queue @ 0.  Starting simulation...
src/sim/syscall_emul.cc:97: warn: ignoring syscall set_robust_list(...)
      (further warnings will be suppressed)
src/sim/syscall_emul.hh:1117: warn: readlink() called on '/proc/self/exe' may yield unexpected results in various settings.
      Returning '/home/lab2/gapbs/rv64_bfs'
src/sim/mem_state.cc:448: info: Increasing stack size by one page.
src/sim/syscall_emul.cc:86: warn: ignoring syscall mprotect(...)
src/sim/mem_state.cc:448: info: Increasing stack size by one page.
No graph input specified. (Use -h for help)
Exiting @ tick 549983000 because exiting with last active thread context
system.cpu.branchPred.committed_0::DirectCond       170025     70.53%     85.59% # Number of branches finally committed  (Count)
system.cpu.branchPred.mispredicted_0::DirectCond         6911     84.13%     97.12% # Number of committed branches that were mispredicted. (Count)

#################################################################
RUNNING LOCAL PREDICTOR WITH SIZE=512 AND LOCAL CTRL BITS=4 AND CHOICE PREDICTOR SIZE=1 AND CHOICE CTRL BITS=4 AND GLOBAL PREDICTOR SIZE=1 AND GLOBAL CTRL BITS=4 AND LOCAL HISTORY TABLE SIZE=1
Global frequency set at 1000000000000 ticks per second
src/mem/dram_interface.cc:690: warn: DRAM device capacity (8192 Mbytes) does not match the address range assigned (128 Mbytes)
src/arch/riscv/isa.cc:279: info: RVV enabled, VLEN = 256 bits, ELEN = 64 bits
src/base/statistics.hh:279: warn: One of the stats is a legacy stat. Legacy stat is a stat that does not belong to any statistics::Group. Legacy stat is deprecated.
system.remote_gdb: Listening for connections on port 7000
gem5 Simulator System.  https://www.gem5.org
gem5 is copyrighted software; use the --copyright option for details.

gem5 version 24.1.0.2
gem5 compiled Mar 20 2025 02:28:21
gem5 started Mar 20 2025 10:58:26
gem5 executing on d5ae7109ba13, pid 6788
command line: /home/gem5/build/RISCV/gem5.opt ooo_core.py --localPredictorSize=512 --localCtrBits=4 --choicePredictorSize=1 --choiceCtrBits=4 --globalPredictorSize=1 --globalCtrBits=4 --localHistoryTableSize=1 /home/lab2/gapbs/rv64_bfs

Beginning simulation!
src/sim/simulate.cc:199: info: Entering event queue @ 0.  Starting simulation...
src/sim/syscall_emul.cc:97: warn: ignoring syscall set_robust_list(...)
      (further warnings will be suppressed)
src/sim/syscall_emul.hh:1117: warn: readlink() called on '/proc/self/exe' may yield unexpected results in various settings.
      Returning '/home/lab2/gapbs/rv64_bfs'
src/sim/mem_state.cc:448: info: Increasing stack size by one page.
src/sim/syscall_emul.cc:86: warn: ignoring syscall mprotect(...)
src/sim/mem_state.cc:448: info: Increasing stack size by one page.
No graph input specified. (Use -h for help)
Exiting @ tick 541309000 because exiting with last active thread context
system.cpu.branchPred.committed_0::DirectCond       170025     70.53%     85.59% # Number of branches finally committed  (Count)
system.cpu.branchPred.mispredicted_0::DirectCond         5600     81.36%     96.57% # Number of committed branches that were mispredicted. (Count)

#################################################################
RUNNING LOCAL PREDICTOR WITH SIZE=1024 AND LOCAL CTRL BITS=4 AND CHOICE PREDICTOR SIZE=1 AND CHOICE CTRL BITS=4 AND GLOBAL PREDICTOR SIZE=1 AND GLOBAL CTRL BITS=4 AND LOCAL HISTORY TABLE SIZE=1
Global frequency set at 1000000000000 ticks per second
src/mem/dram_interface.cc:690: warn: DRAM device capacity (8192 Mbytes) does not match the address range assigned (128 Mbytes)
src/arch/riscv/isa.cc:279: info: RVV enabled, VLEN = 256 bits, ELEN = 64 bits
src/base/statistics.hh:279: warn: One of the stats is a legacy stat. Legacy stat is a stat that does not belong to any statistics::Group. Legacy stat is deprecated.
system.remote_gdb: Listening for connections on port 7000
gem5 Simulator System.  https://www.gem5.org
gem5 is copyrighted software; use the --copyright option for details.

gem5 version 24.1.0.2
gem5 compiled Mar 20 2025 02:28:21
gem5 started Mar 20 2025 10:58:28
gem5 executing on d5ae7109ba13, pid 6797
command line: /home/gem5/build/RISCV/gem5.opt ooo_core.py --localPredictorSize=1024 --localCtrBits=4 --choicePredictorSize=1 --choiceCtrBits=4 --globalPredictorSize=1 --globalCtrBits=4 --localHistoryTableSize=1 /home/lab2/gapbs/rv64_bfs

Beginning simulation!
src/sim/simulate.cc:199: info: Entering event queue @ 0.  Starting simulation...
src/sim/syscall_emul.cc:97: warn: ignoring syscall set_robust_list(...)
      (further warnings will be suppressed)
src/sim/syscall_emul.hh:1117: warn: readlink() called on '/proc/self/exe' may yield unexpected results in various settings.
      Returning '/home/lab2/gapbs/rv64_bfs'
src/sim/mem_state.cc:448: info: Increasing stack size by one page.
src/sim/syscall_emul.cc:86: warn: ignoring syscall mprotect(...)
src/sim/mem_state.cc:448: info: Increasing stack size by one page.
No graph input specified. (Use -h for help)
Exiting @ tick 543709500 because exiting with last active thread context
system.cpu.branchPred.committed_0::DirectCond       170025     70.53%     85.59% # Number of branches finally committed  (Count)
system.cpu.branchPred.mispredicted_0::DirectCond         5954     82.17%     96.65% # Number of committed branches that were mispredicted. (Count)

#################################################################
RUNNING LOCAL PREDICTOR WITH SIZE=2048 AND LOCAL CTRL BITS=4 AND CHOICE PREDICTOR SIZE=1 AND CHOICE CTRL BITS=4 AND GLOBAL PREDICTOR SIZE=1 AND GLOBAL CTRL BITS=4 AND LOCAL HISTORY TABLE SIZE=1
Global frequency set at 1000000000000 ticks per second
src/mem/dram_interface.cc:690: warn: DRAM device capacity (8192 Mbytes) does not match the address range assigned (128 Mbytes)
src/arch/riscv/isa.cc:279: info: RVV enabled, VLEN = 256 bits, ELEN = 64 bits
src/base/statistics.hh:279: warn: One of the stats is a legacy stat. Legacy stat is a stat that does not belong to any statistics::Group. Legacy stat is deprecated.
system.remote_gdb: Listening for connections on port 7000
gem5 Simulator System.  https://www.gem5.org
gem5 is copyrighted software; use the --copyright option for details.

gem5 version 24.1.0.2
gem5 compiled Mar 20 2025 02:28:21
gem5 started Mar 20 2025 10:58:29
gem5 executing on d5ae7109ba13, pid 6806
command line: /home/gem5/build/RISCV/gem5.opt ooo_core.py --localPredictorSize=2048 --localCtrBits=4 --choicePredictorSize=1 --choiceCtrBits=4 --globalPredictorSize=1 --globalCtrBits=4 --localHistoryTableSize=1 /home/lab2/gapbs/rv64_bfs

Beginning simulation!
src/sim/simulate.cc:199: info: Entering event queue @ 0.  Starting simulation...
src/sim/syscall_emul.cc:97: warn: ignoring syscall set_robust_list(...)
      (further warnings will be suppressed)
src/sim/syscall_emul.hh:1117: warn: readlink() called on '/proc/self/exe' may yield unexpected results in various settings.
      Returning '/home/lab2/gapbs/rv64_bfs'
src/sim/mem_state.cc:448: info: Increasing stack size by one page.
src/sim/syscall_emul.cc:86: warn: ignoring syscall mprotect(...)
src/sim/mem_state.cc:448: info: Increasing stack size by one page.
No graph input specified. (Use -h for help)
Exiting @ tick 540039000 because exiting with last active thread context
system.cpu.branchPred.committed_0::DirectCond       170025     70.53%     85.59% # Number of branches finally committed  (Count)
system.cpu.branchPred.mispredicted_0::DirectCond         5348     80.64%     96.37% # Number of committed branches that were mispredicted. (Count)

#################################################################
RUNNING LOCAL PREDICTOR WITH SIZE=4096 AND LOCAL CTRL BITS=4 AND CHOICE PREDICTOR SIZE=1 AND CHOICE CTRL BITS=4 AND GLOBAL PREDICTOR SIZE=1 AND GLOBAL CTRL BITS=4 AND LOCAL HISTORY TABLE SIZE=1
Global frequency set at 1000000000000 ticks per second
src/mem/dram_interface.cc:690: warn: DRAM device capacity (8192 Mbytes) does not match the address range assigned (128 Mbytes)
src/arch/riscv/isa.cc:279: info: RVV enabled, VLEN = 256 bits, ELEN = 64 bits
src/base/statistics.hh:279: warn: One of the stats is a legacy stat. Legacy stat is a stat that does not belong to any statistics::Group. Legacy stat is deprecated.
system.remote_gdb: Listening for connections on port 7000
gem5 Simulator System.  https://www.gem5.org
gem5 is copyrighted software; use the --copyright option for details.

gem5 version 24.1.0.2
gem5 compiled Mar 20 2025 02:28:21
gem5 started Mar 20 2025 10:58:31
gem5 executing on d5ae7109ba13, pid 6815
command line: /home/gem5/build/RISCV/gem5.opt ooo_core.py --localPredictorSize=4096 --localCtrBits=4 --choicePredictorSize=1 --choiceCtrBits=4 --globalPredictorSize=1 --globalCtrBits=4 --localHistoryTableSize=1 /home/lab2/gapbs/rv64_bfs

Beginning simulation!
src/sim/simulate.cc:199: info: Entering event queue @ 0.  Starting simulation...
src/sim/syscall_emul.cc:97: warn: ignoring syscall set_robust_list(...)
      (further warnings will be suppressed)
src/sim/syscall_emul.hh:1117: warn: readlink() called on '/proc/self/exe' may yield unexpected results in various settings.
      Returning '/home/lab2/gapbs/rv64_bfs'
src/sim/mem_state.cc:448: info: Increasing stack size by one page.
src/sim/syscall_emul.cc:86: warn: ignoring syscall mprotect(...)
src/sim/mem_state.cc:448: info: Increasing stack size by one page.
No graph input specified. (Use -h for help)
Exiting @ tick 540365000 because exiting with last active thread context
system.cpu.branchPred.committed_0::DirectCond       170025     70.53%     85.59% # Number of branches finally committed  (Count)
system.cpu.branchPred.mispredicted_0::DirectCond         5422     80.77%     96.40% # Number of committed branches that were mispredicted. (Count)

#################################################################
RUNNING LOCAL PREDICTOR WITH SIZE=8192 AND LOCAL CTRL BITS=4 AND CHOICE PREDICTOR SIZE=1 AND CHOICE CTRL BITS=4 AND GLOBAL PREDICTOR SIZE=1 AND GLOBAL CTRL BITS=4 AND LOCAL HISTORY TABLE SIZE=1
Global frequency set at 1000000000000 ticks per second
src/mem/dram_interface.cc:690: warn: DRAM device capacity (8192 Mbytes) does not match the address range assigned (128 Mbytes)
src/arch/riscv/isa.cc:279: info: RVV enabled, VLEN = 256 bits, ELEN = 64 bits
src/base/statistics.hh:279: warn: One of the stats is a legacy stat. Legacy stat is a stat that does not belong to any statistics::Group. Legacy stat is deprecated.
system.remote_gdb: Listening for connections on port 7000
gem5 Simulator System.  https://www.gem5.org
gem5 is copyrighted software; use the --copyright option for details.

gem5 version 24.1.0.2
gem5 compiled Mar 20 2025 02:28:21
gem5 started Mar 20 2025 10:58:32
gem5 executing on d5ae7109ba13, pid 6824
command line: /home/gem5/build/RISCV/gem5.opt ooo_core.py --localPredictorSize=8192 --localCtrBits=4 --choicePredictorSize=1 --choiceCtrBits=4 --globalPredictorSize=1 --globalCtrBits=4 --localHistoryTableSize=1 /home/lab2/gapbs/rv64_bfs

Beginning simulation!
src/sim/simulate.cc:199: info: Entering event queue @ 0.  Starting simulation...
src/sim/syscall_emul.cc:97: warn: ignoring syscall set_robust_list(...)
      (further warnings will be suppressed)
src/sim/syscall_emul.hh:1117: warn: readlink() called on '/proc/self/exe' may yield unexpected results in various settings.
      Returning '/home/lab2/gapbs/rv64_bfs'
src/sim/mem_state.cc:448: info: Increasing stack size by one page.
src/sim/syscall_emul.cc:86: warn: ignoring syscall mprotect(...)
src/sim/mem_state.cc:448: info: Increasing stack size by one page.
No graph input specified. (Use -h for help)
Exiting @ tick 537275500 because exiting with last active thread context
system.cpu.branchPred.committed_0::DirectCond       170025     70.53%     85.59% # Number of branches finally committed  (Count)
system.cpu.branchPred.mispredicted_0::DirectCond         4838     78.97%     96.07% # Number of committed branches that were mispredicted. (Count)

#################################################################
RUNNING LOCAL PREDICTOR WITH SIZE=16384 AND LOCAL CTRL BITS=4 AND CHOICE PREDICTOR SIZE=1 AND CHOICE CTRL BITS=4 AND GLOBAL PREDICTOR SIZE=1 AND GLOBAL CTRL BITS=4 AND LOCAL HISTORY TABLE SIZE=1
Global frequency set at 1000000000000 ticks per second
src/mem/dram_interface.cc:690: warn: DRAM device capacity (8192 Mbytes) does not match the address range assigned (128 Mbytes)
src/arch/riscv/isa.cc:279: info: RVV enabled, VLEN = 256 bits, ELEN = 64 bits
src/base/statistics.hh:279: warn: One of the stats is a legacy stat. Legacy stat is a stat that does not belong to any statistics::Group. Legacy stat is deprecated.
system.remote_gdb: Listening for connections on port 7000
gem5 Simulator System.  https://www.gem5.org
gem5 is copyrighted software; use the --copyright option for details.

gem5 version 24.1.0.2
gem5 compiled Mar 20 2025 02:28:21
gem5 started Mar 20 2025 10:58:34
gem5 executing on d5ae7109ba13, pid 6833
command line: /home/gem5/build/RISCV/gem5.opt ooo_core.py --localPredictorSize=16384 --localCtrBits=4 --choicePredictorSize=1 --choiceCtrBits=4 --globalPredictorSize=1 --globalCtrBits=4 --localHistoryTableSize=1 /home/lab2/gapbs/rv64_bfs

Beginning simulation!
src/sim/simulate.cc:199: info: Entering event queue @ 0.  Starting simulation...
src/sim/syscall_emul.cc:97: warn: ignoring syscall set_robust_list(...)
      (further warnings will be suppressed)
src/sim/syscall_emul.hh:1117: warn: readlink() called on '/proc/self/exe' may yield unexpected results in various settings.
      Returning '/home/lab2/gapbs/rv64_bfs'
src/sim/mem_state.cc:448: info: Increasing stack size by one page.
src/sim/syscall_emul.cc:86: warn: ignoring syscall mprotect(...)
src/sim/mem_state.cc:448: info: Increasing stack size by one page.
No graph input specified. (Use -h for help)
Exiting @ tick 538495500 because exiting with last active thread context
system.cpu.branchPred.committed_0::DirectCond       170025     70.53%     85.59% # Number of branches finally committed  (Count)
system.cpu.branchPred.mispredicted_0::DirectCond         4903     79.26%     96.04% # Number of committed branches that were mispredicted. (Count)

#################################################################
RUNNING LOCAL PREDICTOR WITH SIZE=32768 AND LOCAL CTRL BITS=4 AND CHOICE PREDICTOR SIZE=1 AND CHOICE CTRL BITS=4 AND GLOBAL PREDICTOR SIZE=1 AND GLOBAL CTRL BITS=4 AND LOCAL HISTORY TABLE SIZE=1
Global frequency set at 1000000000000 ticks per second
src/mem/dram_interface.cc:690: warn: DRAM device capacity (8192 Mbytes) does not match the address range assigned (128 Mbytes)
src/arch/riscv/isa.cc:279: info: RVV enabled, VLEN = 256 bits, ELEN = 64 bits
src/base/statistics.hh:279: warn: One of the stats is a legacy stat. Legacy stat is a stat that does not belong to any statistics::Group. Legacy stat is deprecated.
system.remote_gdb: Listening for connections on port 7000
gem5 Simulator System.  https://www.gem5.org
gem5 is copyrighted software; use the --copyright option for details.

gem5 version 24.1.0.2
gem5 compiled Mar 20 2025 02:28:21
gem5 started Mar 20 2025 10:58:35
gem5 executing on d5ae7109ba13, pid 6842
command line: /home/gem5/build/RISCV/gem5.opt ooo_core.py --localPredictorSize=32768 --localCtrBits=4 --choicePredictorSize=1 --choiceCtrBits=4 --globalPredictorSize=1 --globalCtrBits=4 --localHistoryTableSize=1 /home/lab2/gapbs/rv64_bfs

Beginning simulation!
src/sim/simulate.cc:199: info: Entering event queue @ 0.  Starting simulation...
src/sim/syscall_emul.cc:97: warn: ignoring syscall set_robust_list(...)
      (further warnings will be suppressed)
src/sim/syscall_emul.hh:1117: warn: readlink() called on '/proc/self/exe' may yield unexpected results in various settings.
      Returning '/home/lab2/gapbs/rv64_bfs'
src/sim/mem_state.cc:448: info: Increasing stack size by one page.
src/sim/syscall_emul.cc:86: warn: ignoring syscall mprotect(...)
src/sim/mem_state.cc:448: info: Increasing stack size by one page.
No graph input specified. (Use -h for help)
Exiting @ tick 538170000 because exiting with last active thread context
system.cpu.branchPred.committed_0::DirectCond       170025     70.53%     85.59% # Number of branches finally committed  (Count)
system.cpu.branchPred.mispredicted_0::DirectCond         4868     79.12%     95.99% # Number of committed branches that were mispredicted. (Count)

#################################################################
RUNNING LOCAL PREDICTOR WITH SIZE=65536 AND LOCAL CTRL BITS=4 AND CHOICE PREDICTOR SIZE=1 AND CHOICE CTRL BITS=4 AND GLOBAL PREDICTOR SIZE=1 AND GLOBAL CTRL BITS=4 AND LOCAL HISTORY TABLE SIZE=1
Global frequency set at 1000000000000 ticks per second
src/mem/dram_interface.cc:690: warn: DRAM device capacity (8192 Mbytes) does not match the address range assigned (128 Mbytes)
src/arch/riscv/isa.cc:279: info: RVV enabled, VLEN = 256 bits, ELEN = 64 bits
src/base/statistics.hh:279: warn: One of the stats is a legacy stat. Legacy stat is a stat that does not belong to any statistics::Group. Legacy stat is deprecated.
system.remote_gdb: Listening for connections on port 7000
gem5 Simulator System.  https://www.gem5.org
gem5 is copyrighted software; use the --copyright option for details.

gem5 version 24.1.0.2
gem5 compiled Mar 20 2025 02:28:21
gem5 started Mar 20 2025 10:58:37
gem5 executing on d5ae7109ba13, pid 6851
command line: /home/gem5/build/RISCV/gem5.opt ooo_core.py --localPredictorSize=65536 --localCtrBits=4 --choicePredictorSize=1 --choiceCtrBits=4 --globalPredictorSize=1 --globalCtrBits=4 --localHistoryTableSize=1 /home/lab2/gapbs/rv64_bfs

Beginning simulation!
src/sim/simulate.cc:199: info: Entering event queue @ 0.  Starting simulation...
src/sim/syscall_emul.cc:97: warn: ignoring syscall set_robust_list(...)
      (further warnings will be suppressed)
src/sim/syscall_emul.hh:1117: warn: readlink() called on '/proc/self/exe' may yield unexpected results in various settings.
      Returning '/home/lab2/gapbs/rv64_bfs'
src/sim/mem_state.cc:448: info: Increasing stack size by one page.
src/sim/syscall_emul.cc:86: warn: ignoring syscall mprotect(...)
src/sim/mem_state.cc:448: info: Increasing stack size by one page.
No graph input specified. (Use -h for help)
Exiting @ tick 539214000 because exiting with last active thread context
system.cpu.branchPred.committed_0::DirectCond       170025     70.53%     85.59% # Number of branches finally committed  (Count)
system.cpu.branchPred.mispredicted_0::DirectCond         4914     79.25%     96.03% # Number of committed branches that were mispredicted. (Count)

#################################################################
RUNNING LOCAL PREDICTOR WITH SIZE=64 AND LOCAL CTRL BITS=4 AND CHOICE PREDICTOR SIZE=2 AND CHOICE CTRL BITS=4 AND GLOBAL PREDICTOR SIZE=2 AND GLOBAL CTRL BITS=4 AND LOCAL HISTORY TABLE SIZE=2
Global frequency set at 1000000000000 ticks per second
src/mem/dram_interface.cc:690: warn: DRAM device capacity (8192 Mbytes) does not match the address range assigned (128 Mbytes)
src/arch/riscv/isa.cc:279: info: RVV enabled, VLEN = 256 bits, ELEN = 64 bits
src/base/statistics.hh:279: warn: One of the stats is a legacy stat. Legacy stat is a stat that does not belong to any statistics::Group. Legacy stat is deprecated.
system.remote_gdb: Listening for connections on port 7000
gem5 Simulator System.  https://www.gem5.org
gem5 is copyrighted software; use the --copyright option for details.

gem5 version 24.1.0.2
gem5 compiled Mar 20 2025 02:28:21
gem5 started Mar 20 2025 10:58:38
gem5 executing on d5ae7109ba13, pid 6860
command line: /home/gem5/build/RISCV/gem5.opt ooo_core.py --localPredictorSize=64 --localCtrBits=4 --choicePredictorSize=2 --choiceCtrBits=4 --globalPredictorSize=2 --globalCtrBits=4 --localHistoryTableSize=2 /home/lab2/gapbs/rv64_bfs

Beginning simulation!
src/sim/simulate.cc:199: info: Entering event queue @ 0.  Starting simulation...
src/sim/syscall_emul.cc:97: warn: ignoring syscall set_robust_list(...)
      (further warnings will be suppressed)
src/sim/syscall_emul.hh:1117: warn: readlink() called on '/proc/self/exe' may yield unexpected results in various settings.
      Returning '/home/lab2/gapbs/rv64_bfs'
src/sim/mem_state.cc:448: info: Increasing stack size by one page.
src/sim/syscall_emul.cc:86: warn: ignoring syscall mprotect(...)
src/sim/mem_state.cc:448: info: Increasing stack size by one page.
No graph input specified. (Use -h for help)
Exiting @ tick 561271500 because exiting with last active thread context
system.cpu.branchPred.committed_0::DirectCond       170025     70.53%     85.59% # Number of branches finally committed  (Count)
system.cpu.branchPred.mispredicted_0::DirectCond        13429     91.26%     98.36% # Number of committed branches that were mispredicted. (Count)

#################################################################
RUNNING LOCAL PREDICTOR WITH SIZE=128 AND LOCAL CTRL BITS=4 AND CHOICE PREDICTOR SIZE=2 AND CHOICE CTRL BITS=4 AND GLOBAL PREDICTOR SIZE=2 AND GLOBAL CTRL BITS=4 AND LOCAL HISTORY TABLE SIZE=2
Global frequency set at 1000000000000 ticks per second
src/mem/dram_interface.cc:690: warn: DRAM device capacity (8192 Mbytes) does not match the address range assigned (128 Mbytes)
src/arch/riscv/isa.cc:279: info: RVV enabled, VLEN = 256 bits, ELEN = 64 bits
src/base/statistics.hh:279: warn: One of the stats is a legacy stat. Legacy stat is a stat that does not belong to any statistics::Group. Legacy stat is deprecated.
system.remote_gdb: Listening for connections on port 7000
gem5 Simulator System.  https://www.gem5.org
gem5 is copyrighted software; use the --copyright option for details.

gem5 version 24.1.0.2
gem5 compiled Mar 20 2025 02:28:21
gem5 started Mar 20 2025 10:58:40
gem5 executing on d5ae7109ba13, pid 6869
command line: /home/gem5/build/RISCV/gem5.opt ooo_core.py --localPredictorSize=128 --localCtrBits=4 --choicePredictorSize=2 --choiceCtrBits=4 --globalPredictorSize=2 --globalCtrBits=4 --localHistoryTableSize=2 /home/lab2/gapbs/rv64_bfs

Beginning simulation!
src/sim/simulate.cc:199: info: Entering event queue @ 0.  Starting simulation...
src/sim/syscall_emul.cc:97: warn: ignoring syscall set_robust_list(...)
      (further warnings will be suppressed)
src/sim/syscall_emul.hh:1117: warn: readlink() called on '/proc/self/exe' may yield unexpected results in various settings.
      Returning '/home/lab2/gapbs/rv64_bfs'
src/sim/mem_state.cc:448: info: Increasing stack size by one page.
src/sim/syscall_emul.cc:86: warn: ignoring syscall mprotect(...)
src/sim/mem_state.cc:448: info: Increasing stack size by one page.
No graph input specified. (Use -h for help)
Exiting @ tick 563258000 because exiting with last active thread context
system.cpu.branchPred.committed_0::DirectCond       170025     70.53%     85.59% # Number of branches finally committed  (Count)
system.cpu.branchPred.mispredicted_0::DirectCond        13534     91.35%     98.40% # Number of committed branches that were mispredicted. (Count)

#################################################################
RUNNING LOCAL PREDICTOR WITH SIZE=256 AND LOCAL CTRL BITS=4 AND CHOICE PREDICTOR SIZE=2 AND CHOICE CTRL BITS=4 AND GLOBAL PREDICTOR SIZE=2 AND GLOBAL CTRL BITS=4 AND LOCAL HISTORY TABLE SIZE=2
Global frequency set at 1000000000000 ticks per second
src/mem/dram_interface.cc:690: warn: DRAM device capacity (8192 Mbytes) does not match the address range assigned (128 Mbytes)
src/arch/riscv/isa.cc:279: info: RVV enabled, VLEN = 256 bits, ELEN = 64 bits
src/base/statistics.hh:279: warn: One of the stats is a legacy stat. Legacy stat is a stat that does not belong to any statistics::Group. Legacy stat is deprecated.
system.remote_gdb: Listening for connections on port 7000
gem5 Simulator System.  https://www.gem5.org
gem5 is copyrighted software; use the --copyright option for details.

gem5 version 24.1.0.2
gem5 compiled Mar 20 2025 02:28:21
gem5 started Mar 20 2025 10:58:42
gem5 executing on d5ae7109ba13, pid 6878
command line: /home/gem5/build/RISCV/gem5.opt ooo_core.py --localPredictorSize=256 --localCtrBits=4 --choicePredictorSize=2 --choiceCtrBits=4 --globalPredictorSize=2 --globalCtrBits=4 --localHistoryTableSize=2 /home/lab2/gapbs/rv64_bfs

Beginning simulation!
src/sim/simulate.cc:199: info: Entering event queue @ 0.  Starting simulation...
src/sim/syscall_emul.cc:97: warn: ignoring syscall set_robust_list(...)
      (further warnings will be suppressed)
src/sim/syscall_emul.hh:1117: warn: readlink() called on '/proc/self/exe' may yield unexpected results in various settings.
      Returning '/home/lab2/gapbs/rv64_bfs'
src/sim/mem_state.cc:448: info: Increasing stack size by one page.
src/sim/syscall_emul.cc:86: warn: ignoring syscall mprotect(...)
src/sim/mem_state.cc:448: info: Increasing stack size by one page.
No graph input specified. (Use -h for help)
Exiting @ tick 547991500 because exiting with last active thread context
system.cpu.branchPred.committed_0::DirectCond       170025     70.53%     85.59% # Number of branches finally committed  (Count)
system.cpu.branchPred.mispredicted_0::DirectCond         7009     84.44%     97.25% # Number of committed branches that were mispredicted. (Count)

#################################################################
RUNNING LOCAL PREDICTOR WITH SIZE=512 AND LOCAL CTRL BITS=4 AND CHOICE PREDICTOR SIZE=2 AND CHOICE CTRL BITS=4 AND GLOBAL PREDICTOR SIZE=2 AND GLOBAL CTRL BITS=4 AND LOCAL HISTORY TABLE SIZE=2
Global frequency set at 1000000000000 ticks per second
src/mem/dram_interface.cc:690: warn: DRAM device capacity (8192 Mbytes) does not match the address range assigned (128 Mbytes)
src/arch/riscv/isa.cc:279: info: RVV enabled, VLEN = 256 bits, ELEN = 64 bits
src/base/statistics.hh:279: warn: One of the stats is a legacy stat. Legacy stat is a stat that does not belong to any statistics::Group. Legacy stat is deprecated.
system.remote_gdb: Listening for connections on port 7000
gem5 Simulator System.  https://www.gem5.org
gem5 is copyrighted software; use the --copyright option for details.

gem5 version 24.1.0.2
gem5 compiled Mar 20 2025 02:28:21
gem5 started Mar 20 2025 10:58:43
gem5 executing on d5ae7109ba13, pid 6887
command line: /home/gem5/build/RISCV/gem5.opt ooo_core.py --localPredictorSize=512 --localCtrBits=4 --choicePredictorSize=2 --choiceCtrBits=4 --globalPredictorSize=2 --globalCtrBits=4 --localHistoryTableSize=2 /home/lab2/gapbs/rv64_bfs

Beginning simulation!
src/sim/simulate.cc:199: info: Entering event queue @ 0.  Starting simulation...
src/sim/syscall_emul.cc:97: warn: ignoring syscall set_robust_list(...)
      (further warnings will be suppressed)
src/sim/syscall_emul.hh:1117: warn: readlink() called on '/proc/self/exe' may yield unexpected results in various settings.
      Returning '/home/lab2/gapbs/rv64_bfs'
src/sim/mem_state.cc:448: info: Increasing stack size by one page.
src/sim/syscall_emul.cc:86: warn: ignoring syscall mprotect(...)
src/sim/mem_state.cc:448: info: Increasing stack size by one page.
No graph input specified. (Use -h for help)
Exiting @ tick 548164000 because exiting with last active thread context
system.cpu.branchPred.committed_0::DirectCond       170025     70.53%     85.59% # Number of branches finally committed  (Count)
system.cpu.branchPred.mispredicted_0::DirectCond         7317     85.23%     97.32% # Number of committed branches that were mispredicted. (Count)

#################################################################
RUNNING LOCAL PREDICTOR WITH SIZE=1024 AND LOCAL CTRL BITS=4 AND CHOICE PREDICTOR SIZE=2 AND CHOICE CTRL BITS=4 AND GLOBAL PREDICTOR SIZE=2 AND GLOBAL CTRL BITS=4 AND LOCAL HISTORY TABLE SIZE=2
Global frequency set at 1000000000000 ticks per second
src/mem/dram_interface.cc:690: warn: DRAM device capacity (8192 Mbytes) does not match the address range assigned (128 Mbytes)
src/arch/riscv/isa.cc:279: info: RVV enabled, VLEN = 256 bits, ELEN = 64 bits
src/base/statistics.hh:279: warn: One of the stats is a legacy stat. Legacy stat is a stat that does not belong to any statistics::Group. Legacy stat is deprecated.
system.remote_gdb: Listening for connections on port 7000
gem5 Simulator System.  https://www.gem5.org
gem5 is copyrighted software; use the --copyright option for details.

gem5 version 24.1.0.2
gem5 compiled Mar 20 2025 02:28:21
gem5 started Mar 20 2025 10:58:45
gem5 executing on d5ae7109ba13, pid 6896
command line: /home/gem5/build/RISCV/gem5.opt ooo_core.py --localPredictorSize=1024 --localCtrBits=4 --choicePredictorSize=2 --choiceCtrBits=4 --globalPredictorSize=2 --globalCtrBits=4 --localHistoryTableSize=2 /home/lab2/gapbs/rv64_bfs

Beginning simulation!
src/sim/simulate.cc:199: info: Entering event queue @ 0.  Starting simulation...
src/sim/syscall_emul.cc:97: warn: ignoring syscall set_robust_list(...)
      (further warnings will be suppressed)
src/sim/syscall_emul.hh:1117: warn: readlink() called on '/proc/self/exe' may yield unexpected results in various settings.
      Returning '/home/lab2/gapbs/rv64_bfs'
src/sim/mem_state.cc:448: info: Increasing stack size by one page.
src/sim/syscall_emul.cc:86: warn: ignoring syscall mprotect(...)
src/sim/mem_state.cc:448: info: Increasing stack size by one page.
No graph input specified. (Use -h for help)
Exiting @ tick 541442000 because exiting with last active thread context
system.cpu.branchPred.committed_0::DirectCond       170025     70.53%     85.59% # Number of branches finally committed  (Count)
system.cpu.branchPred.mispredicted_0::DirectCond         5978     82.47%     96.74% # Number of committed branches that were mispredicted. (Count)

#################################################################
RUNNING LOCAL PREDICTOR WITH SIZE=2048 AND LOCAL CTRL BITS=4 AND CHOICE PREDICTOR SIZE=2 AND CHOICE CTRL BITS=4 AND GLOBAL PREDICTOR SIZE=2 AND GLOBAL CTRL BITS=4 AND LOCAL HISTORY TABLE SIZE=2
Global frequency set at 1000000000000 ticks per second
src/mem/dram_interface.cc:690: warn: DRAM device capacity (8192 Mbytes) does not match the address range assigned (128 Mbytes)
src/arch/riscv/isa.cc:279: info: RVV enabled, VLEN = 256 bits, ELEN = 64 bits
src/base/statistics.hh:279: warn: One of the stats is a legacy stat. Legacy stat is a stat that does not belong to any statistics::Group. Legacy stat is deprecated.
system.remote_gdb: Listening for connections on port 7000
gem5 Simulator System.  https://www.gem5.org
gem5 is copyrighted software; use the --copyright option for details.

gem5 version 24.1.0.2
gem5 compiled Mar 20 2025 02:28:21
gem5 started Mar 20 2025 10:58:46
gem5 executing on d5ae7109ba13, pid 6905
command line: /home/gem5/build/RISCV/gem5.opt ooo_core.py --localPredictorSize=2048 --localCtrBits=4 --choicePredictorSize=2 --choiceCtrBits=4 --globalPredictorSize=2 --globalCtrBits=4 --localHistoryTableSize=2 /home/lab2/gapbs/rv64_bfs

Beginning simulation!
src/sim/simulate.cc:199: info: Entering event queue @ 0.  Starting simulation...
src/sim/syscall_emul.cc:97: warn: ignoring syscall set_robust_list(...)
      (further warnings will be suppressed)
src/sim/syscall_emul.hh:1117: warn: readlink() called on '/proc/self/exe' may yield unexpected results in various settings.
      Returning '/home/lab2/gapbs/rv64_bfs'
src/sim/mem_state.cc:448: info: Increasing stack size by one page.
src/sim/syscall_emul.cc:86: warn: ignoring syscall mprotect(...)
src/sim/mem_state.cc:448: info: Increasing stack size by one page.
No graph input specified. (Use -h for help)
Exiting @ tick 539243000 because exiting with last active thread context
system.cpu.branchPred.committed_0::DirectCond       170025     70.53%     85.59% # Number of branches finally committed  (Count)
system.cpu.branchPred.mispredicted_0::DirectCond         5539     81.31%     96.52% # Number of committed branches that were mispredicted. (Count)

#################################################################
RUNNING LOCAL PREDICTOR WITH SIZE=4096 AND LOCAL CTRL BITS=4 AND CHOICE PREDICTOR SIZE=2 AND CHOICE CTRL BITS=4 AND GLOBAL PREDICTOR SIZE=2 AND GLOBAL CTRL BITS=4 AND LOCAL HISTORY TABLE SIZE=2
Global frequency set at 1000000000000 ticks per second
src/mem/dram_interface.cc:690: warn: DRAM device capacity (8192 Mbytes) does not match the address range assigned (128 Mbytes)
src/arch/riscv/isa.cc:279: info: RVV enabled, VLEN = 256 bits, ELEN = 64 bits
src/base/statistics.hh:279: warn: One of the stats is a legacy stat. Legacy stat is a stat that does not belong to any statistics::Group. Legacy stat is deprecated.
system.remote_gdb: Listening for connections on port 7000
gem5 Simulator System.  https://www.gem5.org
gem5 is copyrighted software; use the --copyright option for details.

gem5 version 24.1.0.2
gem5 compiled Mar 20 2025 02:28:21
gem5 started Mar 20 2025 10:58:48
gem5 executing on d5ae7109ba13, pid 6914
command line: /home/gem5/build/RISCV/gem5.opt ooo_core.py --localPredictorSize=4096 --localCtrBits=4 --choicePredictorSize=2 --choiceCtrBits=4 --globalPredictorSize=2 --globalCtrBits=4 --localHistoryTableSize=2 /home/lab2/gapbs/rv64_bfs

Beginning simulation!
src/sim/simulate.cc:199: info: Entering event queue @ 0.  Starting simulation...
src/sim/syscall_emul.cc:97: warn: ignoring syscall set_robust_list(...)
      (further warnings will be suppressed)
src/sim/syscall_emul.hh:1117: warn: readlink() called on '/proc/self/exe' may yield unexpected results in various settings.
      Returning '/home/lab2/gapbs/rv64_bfs'
src/sim/mem_state.cc:448: info: Increasing stack size by one page.
src/sim/syscall_emul.cc:86: warn: ignoring syscall mprotect(...)
src/sim/mem_state.cc:448: info: Increasing stack size by one page.
No graph input specified. (Use -h for help)
Exiting @ tick 538409500 because exiting with last active thread context
system.cpu.branchPred.committed_0::DirectCond       170025     70.53%     85.59% # Number of branches finally committed  (Count)
system.cpu.branchPred.mispredicted_0::DirectCond         5353     80.76%     96.50% # Number of committed branches that were mispredicted. (Count)

#################################################################
RUNNING LOCAL PREDICTOR WITH SIZE=8192 AND LOCAL CTRL BITS=4 AND CHOICE PREDICTOR SIZE=2 AND CHOICE CTRL BITS=4 AND GLOBAL PREDICTOR SIZE=2 AND GLOBAL CTRL BITS=4 AND LOCAL HISTORY TABLE SIZE=2
Global frequency set at 1000000000000 ticks per second
src/mem/dram_interface.cc:690: warn: DRAM device capacity (8192 Mbytes) does not match the address range assigned (128 Mbytes)
src/arch/riscv/isa.cc:279: info: RVV enabled, VLEN = 256 bits, ELEN = 64 bits
src/base/statistics.hh:279: warn: One of the stats is a legacy stat. Legacy stat is a stat that does not belong to any statistics::Group. Legacy stat is deprecated.
system.remote_gdb: Listening for connections on port 7000
gem5 Simulator System.  https://www.gem5.org
gem5 is copyrighted software; use the --copyright option for details.

gem5 version 24.1.0.2
gem5 compiled Mar 20 2025 02:28:21
gem5 started Mar 20 2025 10:58:49
gem5 executing on d5ae7109ba13, pid 6923
command line: /home/gem5/build/RISCV/gem5.opt ooo_core.py --localPredictorSize=8192 --localCtrBits=4 --choicePredictorSize=2 --choiceCtrBits=4 --globalPredictorSize=2 --globalCtrBits=4 --localHistoryTableSize=2 /home/lab2/gapbs/rv64_bfs

Beginning simulation!
src/sim/simulate.cc:199: info: Entering event queue @ 0.  Starting simulation...
src/sim/syscall_emul.cc:97: warn: ignoring syscall set_robust_list(...)
      (further warnings will be suppressed)
src/sim/syscall_emul.hh:1117: warn: readlink() called on '/proc/self/exe' may yield unexpected results in various settings.
      Returning '/home/lab2/gapbs/rv64_bfs'
src/sim/mem_state.cc:448: info: Increasing stack size by one page.
src/sim/syscall_emul.cc:86: warn: ignoring syscall mprotect(...)
src/sim/mem_state.cc:448: info: Increasing stack size by one page.
No graph input specified. (Use -h for help)
Exiting @ tick 539708000 because exiting with last active thread context
system.cpu.branchPred.committed_0::DirectCond       170025     70.53%     85.59% # Number of branches finally committed  (Count)
system.cpu.branchPred.mispredicted_0::DirectCond         5404     80.91%     96.47% # Number of committed branches that were mispredicted. (Count)

#################################################################
RUNNING LOCAL PREDICTOR WITH SIZE=16384 AND LOCAL CTRL BITS=4 AND CHOICE PREDICTOR SIZE=2 AND CHOICE CTRL BITS=4 AND GLOBAL PREDICTOR SIZE=2 AND GLOBAL CTRL BITS=4 AND LOCAL HISTORY TABLE SIZE=2
Global frequency set at 1000000000000 ticks per second
src/mem/dram_interface.cc:690: warn: DRAM device capacity (8192 Mbytes) does not match the address range assigned (128 Mbytes)
src/arch/riscv/isa.cc:279: info: RVV enabled, VLEN = 256 bits, ELEN = 64 bits
src/base/statistics.hh:279: warn: One of the stats is a legacy stat. Legacy stat is a stat that does not belong to any statistics::Group. Legacy stat is deprecated.
system.remote_gdb: Listening for connections on port 7000
gem5 Simulator System.  https://www.gem5.org
gem5 is copyrighted software; use the --copyright option for details.

gem5 version 24.1.0.2
gem5 compiled Mar 20 2025 02:28:21
gem5 started Mar 20 2025 10:58:51
gem5 executing on d5ae7109ba13, pid 6932
command line: /home/gem5/build/RISCV/gem5.opt ooo_core.py --localPredictorSize=16384 --localCtrBits=4 --choicePredictorSize=2 --choiceCtrBits=4 --globalPredictorSize=2 --globalCtrBits=4 --localHistoryTableSize=2 /home/lab2/gapbs/rv64_bfs

Beginning simulation!
src/sim/simulate.cc:199: info: Entering event queue @ 0.  Starting simulation...
src/sim/syscall_emul.cc:97: warn: ignoring syscall set_robust_list(...)
      (further warnings will be suppressed)
src/sim/syscall_emul.hh:1117: warn: readlink() called on '/proc/self/exe' may yield unexpected results in various settings.
      Returning '/home/lab2/gapbs/rv64_bfs'
src/sim/mem_state.cc:448: info: Increasing stack size by one page.
src/sim/syscall_emul.cc:86: warn: ignoring syscall mprotect(...)
src/sim/mem_state.cc:448: info: Increasing stack size by one page.
No graph input specified. (Use -h for help)
Exiting @ tick 536955500 because exiting with last active thread context
system.cpu.branchPred.committed_0::DirectCond       170025     70.53%     85.59% # Number of branches finally committed  (Count)
system.cpu.branchPred.mispredicted_0::DirectCond         5074     79.88%     96.25% # Number of committed branches that were mispredicted. (Count)

#################################################################
RUNNING LOCAL PREDICTOR WITH SIZE=32768 AND LOCAL CTRL BITS=4 AND CHOICE PREDICTOR SIZE=2 AND CHOICE CTRL BITS=4 AND GLOBAL PREDICTOR SIZE=2 AND GLOBAL CTRL BITS=4 AND LOCAL HISTORY TABLE SIZE=2
Global frequency set at 1000000000000 ticks per second
src/mem/dram_interface.cc:690: warn: DRAM device capacity (8192 Mbytes) does not match the address range assigned (128 Mbytes)
src/arch/riscv/isa.cc:279: info: RVV enabled, VLEN = 256 bits, ELEN = 64 bits
src/base/statistics.hh:279: warn: One of the stats is a legacy stat. Legacy stat is a stat that does not belong to any statistics::Group. Legacy stat is deprecated.
system.remote_gdb: Listening for connections on port 7000
gem5 Simulator System.  https://www.gem5.org
gem5 is copyrighted software; use the --copyright option for details.

gem5 version 24.1.0.2
gem5 compiled Mar 20 2025 02:28:21
gem5 started Mar 20 2025 10:58:52
gem5 executing on d5ae7109ba13, pid 6941
command line: /home/gem5/build/RISCV/gem5.opt ooo_core.py --localPredictorSize=32768 --localCtrBits=4 --choicePredictorSize=2 --choiceCtrBits=4 --globalPredictorSize=2 --globalCtrBits=4 --localHistoryTableSize=2 /home/lab2/gapbs/rv64_bfs

Beginning simulation!
src/sim/simulate.cc:199: info: Entering event queue @ 0.  Starting simulation...
src/sim/syscall_emul.cc:97: warn: ignoring syscall set_robust_list(...)
      (further warnings will be suppressed)
src/sim/syscall_emul.hh:1117: warn: readlink() called on '/proc/self/exe' may yield unexpected results in various settings.
      Returning '/home/lab2/gapbs/rv64_bfs'
src/sim/mem_state.cc:448: info: Increasing stack size by one page.
src/sim/syscall_emul.cc:86: warn: ignoring syscall mprotect(...)
src/sim/mem_state.cc:448: info: Increasing stack size by one page.
No graph input specified. (Use -h for help)
Exiting @ tick 537175000 because exiting with last active thread context
system.cpu.branchPred.committed_0::DirectCond       170025     70.53%     85.59% # Number of branches finally committed  (Count)
system.cpu.branchPred.mispredicted_0::DirectCond         5137     80.08%     96.29% # Number of committed branches that were mispredicted. (Count)

#################################################################
RUNNING LOCAL PREDICTOR WITH SIZE=65536 AND LOCAL CTRL BITS=4 AND CHOICE PREDICTOR SIZE=2 AND CHOICE CTRL BITS=4 AND GLOBAL PREDICTOR SIZE=2 AND GLOBAL CTRL BITS=4 AND LOCAL HISTORY TABLE SIZE=2
Global frequency set at 1000000000000 ticks per second
src/mem/dram_interface.cc:690: warn: DRAM device capacity (8192 Mbytes) does not match the address range assigned (128 Mbytes)
src/arch/riscv/isa.cc:279: info: RVV enabled, VLEN = 256 bits, ELEN = 64 bits
src/base/statistics.hh:279: warn: One of the stats is a legacy stat. Legacy stat is a stat that does not belong to any statistics::Group. Legacy stat is deprecated.
system.remote_gdb: Listening for connections on port 7000
gem5 Simulator System.  https://www.gem5.org
gem5 is copyrighted software; use the --copyright option for details.

gem5 version 24.1.0.2
gem5 compiled Mar 20 2025 02:28:21
gem5 started Mar 20 2025 10:58:54
gem5 executing on d5ae7109ba13, pid 6950
command line: /home/gem5/build/RISCV/gem5.opt ooo_core.py --localPredictorSize=65536 --localCtrBits=4 --choicePredictorSize=2 --choiceCtrBits=4 --globalPredictorSize=2 --globalCtrBits=4 --localHistoryTableSize=2 /home/lab2/gapbs/rv64_bfs

Beginning simulation!
src/sim/simulate.cc:199: info: Entering event queue @ 0.  Starting simulation...
src/sim/syscall_emul.cc:97: warn: ignoring syscall set_robust_list(...)
      (further warnings will be suppressed)
src/sim/syscall_emul.hh:1117: warn: readlink() called on '/proc/self/exe' may yield unexpected results in various settings.
      Returning '/home/lab2/gapbs/rv64_bfs'
src/sim/mem_state.cc:448: info: Increasing stack size by one page.
src/sim/syscall_emul.cc:86: warn: ignoring syscall mprotect(...)
src/sim/mem_state.cc:448: info: Increasing stack size by one page.
No graph input specified. (Use -h for help)
Exiting @ tick 539331500 because exiting with last active thread context
system.cpu.branchPred.committed_0::DirectCond       170025     70.53%     85.59% # Number of branches finally committed  (Count)
system.cpu.branchPred.mispredicted_0::DirectCond         5103     79.85%     96.15% # Number of committed branches that were mispredicted. (Count)

#################################################################
RUNNING LOCAL PREDICTOR WITH SIZE=64 AND LOCAL CTRL BITS=4 AND CHOICE PREDICTOR SIZE=4 AND CHOICE CTRL BITS=4 AND GLOBAL PREDICTOR SIZE=4 AND GLOBAL CTRL BITS=4 AND LOCAL HISTORY TABLE SIZE=4
Global frequency set at 1000000000000 ticks per second
src/mem/dram_interface.cc:690: warn: DRAM device capacity (8192 Mbytes) does not match the address range assigned (128 Mbytes)
src/arch/riscv/isa.cc:279: info: RVV enabled, VLEN = 256 bits, ELEN = 64 bits
src/base/statistics.hh:279: warn: One of the stats is a legacy stat. Legacy stat is a stat that does not belong to any statistics::Group. Legacy stat is deprecated.
system.remote_gdb: Listening for connections on port 7000
gem5 Simulator System.  https://www.gem5.org
gem5 is copyrighted software; use the --copyright option for details.

gem5 version 24.1.0.2
gem5 compiled Mar 20 2025 02:28:21
gem5 started Mar 20 2025 10:58:56
gem5 executing on d5ae7109ba13, pid 6959
command line: /home/gem5/build/RISCV/gem5.opt ooo_core.py --localPredictorSize=64 --localCtrBits=4 --choicePredictorSize=4 --choiceCtrBits=4 --globalPredictorSize=4 --globalCtrBits=4 --localHistoryTableSize=4 /home/lab2/gapbs/rv64_bfs

Beginning simulation!
src/sim/simulate.cc:199: info: Entering event queue @ 0.  Starting simulation...
src/sim/syscall_emul.cc:97: warn: ignoring syscall set_robust_list(...)
      (further warnings will be suppressed)
src/sim/syscall_emul.hh:1117: warn: readlink() called on '/proc/self/exe' may yield unexpected results in various settings.
      Returning '/home/lab2/gapbs/rv64_bfs'
src/sim/mem_state.cc:448: info: Increasing stack size by one page.
src/sim/syscall_emul.cc:86: warn: ignoring syscall mprotect(...)
src/sim/mem_state.cc:448: info: Increasing stack size by one page.
No graph input specified. (Use -h for help)
Exiting @ tick 563228500 because exiting with last active thread context
system.cpu.branchPred.committed_0::DirectCond       170025     70.53%     85.59% # Number of branches finally committed  (Count)
system.cpu.branchPred.mispredicted_0::DirectCond         8281     86.62%     97.54% # Number of committed branches that were mispredicted. (Count)

#################################################################
RUNNING LOCAL PREDICTOR WITH SIZE=128 AND LOCAL CTRL BITS=4 AND CHOICE PREDICTOR SIZE=4 AND CHOICE CTRL BITS=4 AND GLOBAL PREDICTOR SIZE=4 AND GLOBAL CTRL BITS=4 AND LOCAL HISTORY TABLE SIZE=4
Global frequency set at 1000000000000 ticks per second
src/mem/dram_interface.cc:690: warn: DRAM device capacity (8192 Mbytes) does not match the address range assigned (128 Mbytes)
src/arch/riscv/isa.cc:279: info: RVV enabled, VLEN = 256 bits, ELEN = 64 bits
src/base/statistics.hh:279: warn: One of the stats is a legacy stat. Legacy stat is a stat that does not belong to any statistics::Group. Legacy stat is deprecated.
system.remote_gdb: Listening for connections on port 7000
gem5 Simulator System.  https://www.gem5.org
gem5 is copyrighted software; use the --copyright option for details.

gem5 version 24.1.0.2
gem5 compiled Mar 20 2025 02:28:21
gem5 started Mar 20 2025 10:58:57
gem5 executing on d5ae7109ba13, pid 6968
command line: /home/gem5/build/RISCV/gem5.opt ooo_core.py --localPredictorSize=128 --localCtrBits=4 --choicePredictorSize=4 --choiceCtrBits=4 --globalPredictorSize=4 --globalCtrBits=4 --localHistoryTableSize=4 /home/lab2/gapbs/rv64_bfs

Beginning simulation!
src/sim/simulate.cc:199: info: Entering event queue @ 0.  Starting simulation...
src/sim/syscall_emul.cc:97: warn: ignoring syscall set_robust_list(...)
      (further warnings will be suppressed)
src/sim/syscall_emul.hh:1117: warn: readlink() called on '/proc/self/exe' may yield unexpected results in various settings.
      Returning '/home/lab2/gapbs/rv64_bfs'
src/sim/mem_state.cc:448: info: Increasing stack size by one page.
src/sim/syscall_emul.cc:86: warn: ignoring syscall mprotect(...)
src/sim/mem_state.cc:448: info: Increasing stack size by one page.
No graph input specified. (Use -h for help)
Exiting @ tick 559456500 because exiting with last active thread context
system.cpu.branchPred.committed_0::DirectCond       170025     70.53%     85.59% # Number of branches finally committed  (Count)
system.cpu.branchPred.mispredicted_0::DirectCond         7870     85.83%     97.21% # Number of committed branches that were mispredicted. (Count)

#################################################################
RUNNING LOCAL PREDICTOR WITH SIZE=256 AND LOCAL CTRL BITS=4 AND CHOICE PREDICTOR SIZE=4 AND CHOICE CTRL BITS=4 AND GLOBAL PREDICTOR SIZE=4 AND GLOBAL CTRL BITS=4 AND LOCAL HISTORY TABLE SIZE=4
Global frequency set at 1000000000000 ticks per second
src/mem/dram_interface.cc:690: warn: DRAM device capacity (8192 Mbytes) does not match the address range assigned (128 Mbytes)
src/arch/riscv/isa.cc:279: info: RVV enabled, VLEN = 256 bits, ELEN = 64 bits
src/base/statistics.hh:279: warn: One of the stats is a legacy stat. Legacy stat is a stat that does not belong to any statistics::Group. Legacy stat is deprecated.
system.remote_gdb: Listening for connections on port 7000
gem5 Simulator System.  https://www.gem5.org
gem5 is copyrighted software; use the --copyright option for details.

gem5 version 24.1.0.2
gem5 compiled Mar 20 2025 02:28:21
gem5 started Mar 20 2025 10:58:59
gem5 executing on d5ae7109ba13, pid 6977
command line: /home/gem5/build/RISCV/gem5.opt ooo_core.py --localPredictorSize=256 --localCtrBits=4 --choicePredictorSize=4 --choiceCtrBits=4 --globalPredictorSize=4 --globalCtrBits=4 --localHistoryTableSize=4 /home/lab2/gapbs/rv64_bfs

Beginning simulation!
src/sim/simulate.cc:199: info: Entering event queue @ 0.  Starting simulation...
src/sim/syscall_emul.cc:97: warn: ignoring syscall set_robust_list(...)
      (further warnings will be suppressed)
src/sim/syscall_emul.hh:1117: warn: readlink() called on '/proc/self/exe' may yield unexpected results in various settings.
      Returning '/home/lab2/gapbs/rv64_bfs'
src/sim/mem_state.cc:448: info: Increasing stack size by one page.
src/sim/syscall_emul.cc:86: warn: ignoring syscall mprotect(...)
src/sim/mem_state.cc:448: info: Increasing stack size by one page.
No graph input specified. (Use -h for help)
Exiting @ tick 559380000 because exiting with last active thread context
system.cpu.branchPred.committed_0::DirectCond       170025     70.53%     85.59% # Number of branches finally committed  (Count)
system.cpu.branchPred.mispredicted_0::DirectCond         7641     85.25%     97.07% # Number of committed branches that were mispredicted. (Count)

#################################################################
RUNNING LOCAL PREDICTOR WITH SIZE=512 AND LOCAL CTRL BITS=4 AND CHOICE PREDICTOR SIZE=4 AND CHOICE CTRL BITS=4 AND GLOBAL PREDICTOR SIZE=4 AND GLOBAL CTRL BITS=4 AND LOCAL HISTORY TABLE SIZE=4
Global frequency set at 1000000000000 ticks per second
src/mem/dram_interface.cc:690: warn: DRAM device capacity (8192 Mbytes) does not match the address range assigned (128 Mbytes)
src/arch/riscv/isa.cc:279: info: RVV enabled, VLEN = 256 bits, ELEN = 64 bits
src/base/statistics.hh:279: warn: One of the stats is a legacy stat. Legacy stat is a stat that does not belong to any statistics::Group. Legacy stat is deprecated.
system.remote_gdb: Listening for connections on port 7000
gem5 Simulator System.  https://www.gem5.org
gem5 is copyrighted software; use the --copyright option for details.

gem5 version 24.1.0.2
gem5 compiled Mar 20 2025 02:28:21
gem5 started Mar 20 2025 10:59:01
gem5 executing on d5ae7109ba13, pid 6986
command line: /home/gem5/build/RISCV/gem5.opt ooo_core.py --localPredictorSize=512 --localCtrBits=4 --choicePredictorSize=4 --choiceCtrBits=4 --globalPredictorSize=4 --globalCtrBits=4 --localHistoryTableSize=4 /home/lab2/gapbs/rv64_bfs

Beginning simulation!
src/sim/simulate.cc:199: info: Entering event queue @ 0.  Starting simulation...
src/sim/syscall_emul.cc:97: warn: ignoring syscall set_robust_list(...)
      (further warnings will be suppressed)
src/sim/syscall_emul.hh:1117: warn: readlink() called on '/proc/self/exe' may yield unexpected results in various settings.
      Returning '/home/lab2/gapbs/rv64_bfs'
src/sim/mem_state.cc:448: info: Increasing stack size by one page.
src/sim/syscall_emul.cc:86: warn: ignoring syscall mprotect(...)
src/sim/mem_state.cc:448: info: Increasing stack size by one page.
No graph input specified. (Use -h for help)
Exiting @ tick 558288000 because exiting with last active thread context
system.cpu.branchPred.committed_0::DirectCond       170025     70.53%     85.59% # Number of branches finally committed  (Count)
system.cpu.branchPred.mispredicted_0::DirectCond         7394     84.99%     97.01% # Number of committed branches that were mispredicted. (Count)

#################################################################
RUNNING LOCAL PREDICTOR WITH SIZE=1024 AND LOCAL CTRL BITS=4 AND CHOICE PREDICTOR SIZE=4 AND CHOICE CTRL BITS=4 AND GLOBAL PREDICTOR SIZE=4 AND GLOBAL CTRL BITS=4 AND LOCAL HISTORY TABLE SIZE=4
Global frequency set at 1000000000000 ticks per second
src/mem/dram_interface.cc:690: warn: DRAM device capacity (8192 Mbytes) does not match the address range assigned (128 Mbytes)
src/arch/riscv/isa.cc:279: info: RVV enabled, VLEN = 256 bits, ELEN = 64 bits
src/base/statistics.hh:279: warn: One of the stats is a legacy stat. Legacy stat is a stat that does not belong to any statistics::Group. Legacy stat is deprecated.
system.remote_gdb: Listening for connections on port 7000
gem5 Simulator System.  https://www.gem5.org
gem5 is copyrighted software; use the --copyright option for details.

gem5 version 24.1.0.2
gem5 compiled Mar 20 2025 02:28:21
gem5 started Mar 20 2025 10:59:02
gem5 executing on d5ae7109ba13, pid 6995
command line: /home/gem5/build/RISCV/gem5.opt ooo_core.py --localPredictorSize=1024 --localCtrBits=4 --choicePredictorSize=4 --choiceCtrBits=4 --globalPredictorSize=4 --globalCtrBits=4 --localHistoryTableSize=4 /home/lab2/gapbs/rv64_bfs

Beginning simulation!
src/sim/simulate.cc:199: info: Entering event queue @ 0.  Starting simulation...
src/sim/syscall_emul.cc:97: warn: ignoring syscall set_robust_list(...)
      (further warnings will be suppressed)
src/sim/syscall_emul.hh:1117: warn: readlink() called on '/proc/self/exe' may yield unexpected results in various settings.
      Returning '/home/lab2/gapbs/rv64_bfs'
src/sim/mem_state.cc:448: info: Increasing stack size by one page.
src/sim/syscall_emul.cc:86: warn: ignoring syscall mprotect(...)
src/sim/mem_state.cc:448: info: Increasing stack size by one page.
No graph input specified. (Use -h for help)
Exiting @ tick 556073000 because exiting with last active thread context
system.cpu.branchPred.committed_0::DirectCond       170025     70.53%     85.59% # Number of branches finally committed  (Count)
system.cpu.branchPred.mispredicted_0::DirectCond         7141     84.64%     96.93% # Number of committed branches that were mispredicted. (Count)

#################################################################
RUNNING LOCAL PREDICTOR WITH SIZE=2048 AND LOCAL CTRL BITS=4 AND CHOICE PREDICTOR SIZE=4 AND CHOICE CTRL BITS=4 AND GLOBAL PREDICTOR SIZE=4 AND GLOBAL CTRL BITS=4 AND LOCAL HISTORY TABLE SIZE=4
Global frequency set at 1000000000000 ticks per second
src/mem/dram_interface.cc:690: warn: DRAM device capacity (8192 Mbytes) does not match the address range assigned (128 Mbytes)
src/arch/riscv/isa.cc:279: info: RVV enabled, VLEN = 256 bits, ELEN = 64 bits
src/base/statistics.hh:279: warn: One of the stats is a legacy stat. Legacy stat is a stat that does not belong to any statistics::Group. Legacy stat is deprecated.
system.remote_gdb: Listening for connections on port 7000
gem5 Simulator System.  https://www.gem5.org
gem5 is copyrighted software; use the --copyright option for details.

gem5 version 24.1.0.2
gem5 compiled Mar 20 2025 02:28:21
gem5 started Mar 20 2025 10:59:04
gem5 executing on d5ae7109ba13, pid 7004
command line: /home/gem5/build/RISCV/gem5.opt ooo_core.py --localPredictorSize=2048 --localCtrBits=4 --choicePredictorSize=4 --choiceCtrBits=4 --globalPredictorSize=4 --globalCtrBits=4 --localHistoryTableSize=4 /home/lab2/gapbs/rv64_bfs

Beginning simulation!
src/sim/simulate.cc:199: info: Entering event queue @ 0.  Starting simulation...
src/sim/syscall_emul.cc:97: warn: ignoring syscall set_robust_list(...)
      (further warnings will be suppressed)
src/sim/syscall_emul.hh:1117: warn: readlink() called on '/proc/self/exe' may yield unexpected results in various settings.
      Returning '/home/lab2/gapbs/rv64_bfs'
src/sim/mem_state.cc:448: info: Increasing stack size by one page.
src/sim/syscall_emul.cc:86: warn: ignoring syscall mprotect(...)
src/sim/mem_state.cc:448: info: Increasing stack size by one page.
No graph input specified. (Use -h for help)
Exiting @ tick 557558000 because exiting with last active thread context
system.cpu.branchPred.committed_0::DirectCond       170025     70.53%     85.59% # Number of branches finally committed  (Count)
system.cpu.branchPred.mispredicted_0::DirectCond         7214     84.94%     97.04% # Number of committed branches that were mispredicted. (Count)

#################################################################
RUNNING LOCAL PREDICTOR WITH SIZE=4096 AND LOCAL CTRL BITS=4 AND CHOICE PREDICTOR SIZE=4 AND CHOICE CTRL BITS=4 AND GLOBAL PREDICTOR SIZE=4 AND GLOBAL CTRL BITS=4 AND LOCAL HISTORY TABLE SIZE=4
Global frequency set at 1000000000000 ticks per second
src/mem/dram_interface.cc:690: warn: DRAM device capacity (8192 Mbytes) does not match the address range assigned (128 Mbytes)
src/arch/riscv/isa.cc:279: info: RVV enabled, VLEN = 256 bits, ELEN = 64 bits
src/base/statistics.hh:279: warn: One of the stats is a legacy stat. Legacy stat is a stat that does not belong to any statistics::Group. Legacy stat is deprecated.
system.remote_gdb: Listening for connections on port 7000
gem5 Simulator System.  https://www.gem5.org
gem5 is copyrighted software; use the --copyright option for details.

gem5 version 24.1.0.2
gem5 compiled Mar 20 2025 02:28:21
gem5 started Mar 20 2025 10:59:05
gem5 executing on d5ae7109ba13, pid 7013
command line: /home/gem5/build/RISCV/gem5.opt ooo_core.py --localPredictorSize=4096 --localCtrBits=4 --choicePredictorSize=4 --choiceCtrBits=4 --globalPredictorSize=4 --globalCtrBits=4 --localHistoryTableSize=4 /home/lab2/gapbs/rv64_bfs

Beginning simulation!
src/sim/simulate.cc:199: info: Entering event queue @ 0.  Starting simulation...
src/sim/syscall_emul.cc:97: warn: ignoring syscall set_robust_list(...)
      (further warnings will be suppressed)
src/sim/syscall_emul.hh:1117: warn: readlink() called on '/proc/self/exe' may yield unexpected results in various settings.
      Returning '/home/lab2/gapbs/rv64_bfs'
src/sim/mem_state.cc:448: info: Increasing stack size by one page.
src/sim/syscall_emul.cc:86: warn: ignoring syscall mprotect(...)
src/sim/mem_state.cc:448: info: Increasing stack size by one page.
No graph input specified. (Use -h for help)
Exiting @ tick 554066500 because exiting with last active thread context
system.cpu.branchPred.committed_0::DirectCond       170025     70.53%     85.59% # Number of branches finally committed  (Count)
system.cpu.branchPred.mispredicted_0::DirectCond         6503     83.48%     96.70% # Number of committed branches that were mispredicted. (Count)

#################################################################
RUNNING LOCAL PREDICTOR WITH SIZE=8192 AND LOCAL CTRL BITS=4 AND CHOICE PREDICTOR SIZE=4 AND CHOICE CTRL BITS=4 AND GLOBAL PREDICTOR SIZE=4 AND GLOBAL CTRL BITS=4 AND LOCAL HISTORY TABLE SIZE=4
Global frequency set at 1000000000000 ticks per second
src/mem/dram_interface.cc:690: warn: DRAM device capacity (8192 Mbytes) does not match the address range assigned (128 Mbytes)
src/arch/riscv/isa.cc:279: info: RVV enabled, VLEN = 256 bits, ELEN = 64 bits
src/base/statistics.hh:279: warn: One of the stats is a legacy stat. Legacy stat is a stat that does not belong to any statistics::Group. Legacy stat is deprecated.
system.remote_gdb: Listening for connections on port 7000
gem5 Simulator System.  https://www.gem5.org
gem5 is copyrighted software; use the --copyright option for details.

gem5 version 24.1.0.2
gem5 compiled Mar 20 2025 02:28:21
gem5 started Mar 20 2025 10:59:07
gem5 executing on d5ae7109ba13, pid 7022
command line: /home/gem5/build/RISCV/gem5.opt ooo_core.py --localPredictorSize=8192 --localCtrBits=4 --choicePredictorSize=4 --choiceCtrBits=4 --globalPredictorSize=4 --globalCtrBits=4 --localHistoryTableSize=4 /home/lab2/gapbs/rv64_bfs

Beginning simulation!
src/sim/simulate.cc:199: info: Entering event queue @ 0.  Starting simulation...
src/sim/syscall_emul.cc:97: warn: ignoring syscall set_robust_list(...)
      (further warnings will be suppressed)
src/sim/syscall_emul.hh:1117: warn: readlink() called on '/proc/self/exe' may yield unexpected results in various settings.
      Returning '/home/lab2/gapbs/rv64_bfs'
src/sim/mem_state.cc:448: info: Increasing stack size by one page.
src/sim/syscall_emul.cc:86: warn: ignoring syscall mprotect(...)
src/sim/mem_state.cc:448: info: Increasing stack size by one page.
No graph input specified. (Use -h for help)
Exiting @ tick 553982500 because exiting with last active thread context
system.cpu.branchPred.committed_0::DirectCond       170025     70.53%     85.59% # Number of branches finally committed  (Count)
system.cpu.branchPred.mispredicted_0::DirectCond         6401     83.23%     96.74% # Number of committed branches that were mispredicted. (Count)

#################################################################
RUNNING LOCAL PREDICTOR WITH SIZE=16384 AND LOCAL CTRL BITS=4 AND CHOICE PREDICTOR SIZE=4 AND CHOICE CTRL BITS=4 AND GLOBAL PREDICTOR SIZE=4 AND GLOBAL CTRL BITS=4 AND LOCAL HISTORY TABLE SIZE=4
Global frequency set at 1000000000000 ticks per second
src/mem/dram_interface.cc:690: warn: DRAM device capacity (8192 Mbytes) does not match the address range assigned (128 Mbytes)
src/arch/riscv/isa.cc:279: info: RVV enabled, VLEN = 256 bits, ELEN = 64 bits
src/base/statistics.hh:279: warn: One of the stats is a legacy stat. Legacy stat is a stat that does not belong to any statistics::Group. Legacy stat is deprecated.
system.remote_gdb: Listening for connections on port 7000
gem5 Simulator System.  https://www.gem5.org
gem5 is copyrighted software; use the --copyright option for details.

gem5 version 24.1.0.2
gem5 compiled Mar 20 2025 02:28:21
gem5 started Mar 20 2025 10:59:09
gem5 executing on d5ae7109ba13, pid 7031
command line: /home/gem5/build/RISCV/gem5.opt ooo_core.py --localPredictorSize=16384 --localCtrBits=4 --choicePredictorSize=4 --choiceCtrBits=4 --globalPredictorSize=4 --globalCtrBits=4 --localHistoryTableSize=4 /home/lab2/gapbs/rv64_bfs

Beginning simulation!
src/sim/simulate.cc:199: info: Entering event queue @ 0.  Starting simulation...
src/sim/syscall_emul.cc:97: warn: ignoring syscall set_robust_list(...)
      (further warnings will be suppressed)
src/sim/syscall_emul.hh:1117: warn: readlink() called on '/proc/self/exe' may yield unexpected results in various settings.
      Returning '/home/lab2/gapbs/rv64_bfs'
src/sim/mem_state.cc:448: info: Increasing stack size by one page.
src/sim/syscall_emul.cc:86: warn: ignoring syscall mprotect(...)
src/sim/mem_state.cc:448: info: Increasing stack size by one page.
No graph input specified. (Use -h for help)
Exiting @ tick 554268000 because exiting with last active thread context
system.cpu.branchPred.committed_0::DirectCond       170025     70.53%     85.59% # Number of branches finally committed  (Count)
system.cpu.branchPred.mispredicted_0::DirectCond         6531     83.52%     96.73% # Number of committed branches that were mispredicted. (Count)

#################################################################
RUNNING LOCAL PREDICTOR WITH SIZE=32768 AND LOCAL CTRL BITS=4 AND CHOICE PREDICTOR SIZE=4 AND CHOICE CTRL BITS=4 AND GLOBAL PREDICTOR SIZE=4 AND GLOBAL CTRL BITS=4 AND LOCAL HISTORY TABLE SIZE=4
Global frequency set at 1000000000000 ticks per second
src/mem/dram_interface.cc:690: warn: DRAM device capacity (8192 Mbytes) does not match the address range assigned (128 Mbytes)
src/arch/riscv/isa.cc:279: info: RVV enabled, VLEN = 256 bits, ELEN = 64 bits
src/base/statistics.hh:279: warn: One of the stats is a legacy stat. Legacy stat is a stat that does not belong to any statistics::Group. Legacy stat is deprecated.
system.remote_gdb: Listening for connections on port 7000
gem5 Simulator System.  https://www.gem5.org
gem5 is copyrighted software; use the --copyright option for details.

gem5 version 24.1.0.2
gem5 compiled Mar 20 2025 02:28:21
gem5 started Mar 20 2025 10:59:10
gem5 executing on d5ae7109ba13, pid 7040
command line: /home/gem5/build/RISCV/gem5.opt ooo_core.py --localPredictorSize=32768 --localCtrBits=4 --choicePredictorSize=4 --choiceCtrBits=4 --globalPredictorSize=4 --globalCtrBits=4 --localHistoryTableSize=4 /home/lab2/gapbs/rv64_bfs

Beginning simulation!
src/sim/simulate.cc:199: info: Entering event queue @ 0.  Starting simulation...
src/sim/syscall_emul.cc:97: warn: ignoring syscall set_robust_list(...)
      (further warnings will be suppressed)
src/sim/syscall_emul.hh:1117: warn: readlink() called on '/proc/self/exe' may yield unexpected results in various settings.
      Returning '/home/lab2/gapbs/rv64_bfs'
src/sim/mem_state.cc:448: info: Increasing stack size by one page.
src/sim/syscall_emul.cc:86: warn: ignoring syscall mprotect(...)
src/sim/mem_state.cc:448: info: Increasing stack size by one page.
No graph input specified. (Use -h for help)
Exiting @ tick 550881000 because exiting with last active thread context
system.cpu.branchPred.committed_0::DirectCond       170025     70.53%     85.59% # Number of branches finally committed  (Count)
system.cpu.branchPred.mispredicted_0::DirectCond         6192     82.67%     96.48% # Number of committed branches that were mispredicted. (Count)

#################################################################
RUNNING LOCAL PREDICTOR WITH SIZE=65536 AND LOCAL CTRL BITS=4 AND CHOICE PREDICTOR SIZE=4 AND CHOICE CTRL BITS=4 AND GLOBAL PREDICTOR SIZE=4 AND GLOBAL CTRL BITS=4 AND LOCAL HISTORY TABLE SIZE=4
Global frequency set at 1000000000000 ticks per second
src/mem/dram_interface.cc:690: warn: DRAM device capacity (8192 Mbytes) does not match the address range assigned (128 Mbytes)
src/arch/riscv/isa.cc:279: info: RVV enabled, VLEN = 256 bits, ELEN = 64 bits
src/base/statistics.hh:279: warn: One of the stats is a legacy stat. Legacy stat is a stat that does not belong to any statistics::Group. Legacy stat is deprecated.
system.remote_gdb: Listening for connections on port 7000
gem5 Simulator System.  https://www.gem5.org
gem5 is copyrighted software; use the --copyright option for details.

gem5 version 24.1.0.2
gem5 compiled Mar 20 2025 02:28:21
gem5 started Mar 20 2025 10:59:12
gem5 executing on d5ae7109ba13, pid 7049
command line: /home/gem5/build/RISCV/gem5.opt ooo_core.py --localPredictorSize=65536 --localCtrBits=4 --choicePredictorSize=4 --choiceCtrBits=4 --globalPredictorSize=4 --globalCtrBits=4 --localHistoryTableSize=4 /home/lab2/gapbs/rv64_bfs

Beginning simulation!
src/sim/simulate.cc:199: info: Entering event queue @ 0.  Starting simulation...
src/sim/syscall_emul.cc:97: warn: ignoring syscall set_robust_list(...)
      (further warnings will be suppressed)
src/sim/syscall_emul.hh:1117: warn: readlink() called on '/proc/self/exe' may yield unexpected results in various settings.
      Returning '/home/lab2/gapbs/rv64_bfs'
src/sim/mem_state.cc:448: info: Increasing stack size by one page.
src/sim/syscall_emul.cc:86: warn: ignoring syscall mprotect(...)
src/sim/mem_state.cc:448: info: Increasing stack size by one page.
No graph input specified. (Use -h for help)
Exiting @ tick 551337500 because exiting with last active thread context
system.cpu.branchPred.committed_0::DirectCond       170025     70.53%     85.59% # Number of branches finally committed  (Count)
system.cpu.branchPred.mispredicted_0::DirectCond         6288     82.85%     96.47% # Number of committed branches that were mispredicted. (Count)

#################################################################
RUNNING LOCAL PREDICTOR WITH SIZE=64 AND LOCAL CTRL BITS=4 AND CHOICE PREDICTOR SIZE=8 AND CHOICE CTRL BITS=4 AND GLOBAL PREDICTOR SIZE=8 AND GLOBAL CTRL BITS=4 AND LOCAL HISTORY TABLE SIZE=8
Global frequency set at 1000000000000 ticks per second
src/mem/dram_interface.cc:690: warn: DRAM device capacity (8192 Mbytes) does not match the address range assigned (128 Mbytes)
src/arch/riscv/isa.cc:279: info: RVV enabled, VLEN = 256 bits, ELEN = 64 bits
src/base/statistics.hh:279: warn: One of the stats is a legacy stat. Legacy stat is a stat that does not belong to any statistics::Group. Legacy stat is deprecated.
system.remote_gdb: Listening for connections on port 7000
gem5 Simulator System.  https://www.gem5.org
gem5 is copyrighted software; use the --copyright option for details.

gem5 version 24.1.0.2
gem5 compiled Mar 20 2025 02:28:21
gem5 started Mar 20 2025 10:59:13
gem5 executing on d5ae7109ba13, pid 7058
command line: /home/gem5/build/RISCV/gem5.opt ooo_core.py --localPredictorSize=64 --localCtrBits=4 --choicePredictorSize=8 --choiceCtrBits=4 --globalPredictorSize=8 --globalCtrBits=4 --localHistoryTableSize=8 /home/lab2/gapbs/rv64_bfs

Beginning simulation!
src/sim/simulate.cc:199: info: Entering event queue @ 0.  Starting simulation...
src/sim/syscall_emul.cc:97: warn: ignoring syscall set_robust_list(...)
      (further warnings will be suppressed)
src/sim/syscall_emul.hh:1117: warn: readlink() called on '/proc/self/exe' may yield unexpected results in various settings.
      Returning '/home/lab2/gapbs/rv64_bfs'
src/sim/mem_state.cc:448: info: Increasing stack size by one page.
src/sim/syscall_emul.cc:86: warn: ignoring syscall mprotect(...)
src/sim/mem_state.cc:448: info: Increasing stack size by one page.
No graph input specified. (Use -h for help)
Exiting @ tick 612248500 because exiting with last active thread context
system.cpu.branchPred.committed_0::DirectCond       170025     70.53%     85.59% # Number of branches finally committed  (Count)
system.cpu.branchPred.mispredicted_0::DirectCond        13337     91.03%     98.23% # Number of committed branches that were mispredicted. (Count)

#################################################################
RUNNING LOCAL PREDICTOR WITH SIZE=128 AND LOCAL CTRL BITS=4 AND CHOICE PREDICTOR SIZE=8 AND CHOICE CTRL BITS=4 AND GLOBAL PREDICTOR SIZE=8 AND GLOBAL CTRL BITS=4 AND LOCAL HISTORY TABLE SIZE=8
Global frequency set at 1000000000000 ticks per second
src/mem/dram_interface.cc:690: warn: DRAM device capacity (8192 Mbytes) does not match the address range assigned (128 Mbytes)
src/arch/riscv/isa.cc:279: info: RVV enabled, VLEN = 256 bits, ELEN = 64 bits
src/base/statistics.hh:279: warn: One of the stats is a legacy stat. Legacy stat is a stat that does not belong to any statistics::Group. Legacy stat is deprecated.
system.remote_gdb: Listening for connections on port 7000
gem5 Simulator System.  https://www.gem5.org
gem5 is copyrighted software; use the --copyright option for details.

gem5 version 24.1.0.2
gem5 compiled Mar 20 2025 02:28:21
gem5 started Mar 20 2025 10:59:15
gem5 executing on d5ae7109ba13, pid 7067
command line: /home/gem5/build/RISCV/gem5.opt ooo_core.py --localPredictorSize=128 --localCtrBits=4 --choicePredictorSize=8 --choiceCtrBits=4 --globalPredictorSize=8 --globalCtrBits=4 --localHistoryTableSize=8 /home/lab2/gapbs/rv64_bfs

Beginning simulation!
src/sim/simulate.cc:199: info: Entering event queue @ 0.  Starting simulation...
src/sim/syscall_emul.cc:97: warn: ignoring syscall set_robust_list(...)
      (further warnings will be suppressed)
src/sim/syscall_emul.hh:1117: warn: readlink() called on '/proc/self/exe' may yield unexpected results in various settings.
      Returning '/home/lab2/gapbs/rv64_bfs'
src/sim/mem_state.cc:448: info: Increasing stack size by one page.
src/sim/syscall_emul.cc:86: warn: ignoring syscall mprotect(...)
src/sim/mem_state.cc:448: info: Increasing stack size by one page.
No graph input specified. (Use -h for help)
Exiting @ tick 591071500 because exiting with last active thread context
system.cpu.branchPred.committed_0::DirectCond       170025     70.53%     85.59% # Number of branches finally committed  (Count)
system.cpu.branchPred.mispredicted_0::DirectCond        11184     89.58%     97.91% # Number of committed branches that were mispredicted. (Count)

#################################################################
RUNNING LOCAL PREDICTOR WITH SIZE=256 AND LOCAL CTRL BITS=4 AND CHOICE PREDICTOR SIZE=8 AND CHOICE CTRL BITS=4 AND GLOBAL PREDICTOR SIZE=8 AND GLOBAL CTRL BITS=4 AND LOCAL HISTORY TABLE SIZE=8
Global frequency set at 1000000000000 ticks per second
src/mem/dram_interface.cc:690: warn: DRAM device capacity (8192 Mbytes) does not match the address range assigned (128 Mbytes)
src/arch/riscv/isa.cc:279: info: RVV enabled, VLEN = 256 bits, ELEN = 64 bits
src/base/statistics.hh:279: warn: One of the stats is a legacy stat. Legacy stat is a stat that does not belong to any statistics::Group. Legacy stat is deprecated.
system.remote_gdb: Listening for connections on port 7000
gem5 Simulator System.  https://www.gem5.org
gem5 is copyrighted software; use the --copyright option for details.

gem5 version 24.1.0.2
gem5 compiled Mar 20 2025 02:28:21
gem5 started Mar 20 2025 10:59:17
gem5 executing on d5ae7109ba13, pid 7076
command line: /home/gem5/build/RISCV/gem5.opt ooo_core.py --localPredictorSize=256 --localCtrBits=4 --choicePredictorSize=8 --choiceCtrBits=4 --globalPredictorSize=8 --globalCtrBits=4 --localHistoryTableSize=8 /home/lab2/gapbs/rv64_bfs

Beginning simulation!
src/sim/simulate.cc:199: info: Entering event queue @ 0.  Starting simulation...
src/sim/syscall_emul.cc:97: warn: ignoring syscall set_robust_list(...)
      (further warnings will be suppressed)
src/sim/syscall_emul.hh:1117: warn: readlink() called on '/proc/self/exe' may yield unexpected results in various settings.
      Returning '/home/lab2/gapbs/rv64_bfs'
src/sim/mem_state.cc:448: info: Increasing stack size by one page.
src/sim/syscall_emul.cc:86: warn: ignoring syscall mprotect(...)
src/sim/mem_state.cc:448: info: Increasing stack size by one page.
No graph input specified. (Use -h for help)
Exiting @ tick 583068000 because exiting with last active thread context
system.cpu.branchPred.committed_0::DirectCond       170025     70.53%     85.59% # Number of branches finally committed  (Count)
system.cpu.branchPred.mispredicted_0::DirectCond         9713     88.26%     97.61% # Number of committed branches that were mispredicted. (Count)

#################################################################
RUNNING LOCAL PREDICTOR WITH SIZE=512 AND LOCAL CTRL BITS=4 AND CHOICE PREDICTOR SIZE=8 AND CHOICE CTRL BITS=4 AND GLOBAL PREDICTOR SIZE=8 AND GLOBAL CTRL BITS=4 AND LOCAL HISTORY TABLE SIZE=8
Global frequency set at 1000000000000 ticks per second
src/mem/dram_interface.cc:690: warn: DRAM device capacity (8192 Mbytes) does not match the address range assigned (128 Mbytes)
[...]
Global frequency set at 1000000000000 ticks per second
src/mem/dram_interface.cc:690: warn: DRAM device capacity (8192 Mbytes) does not match the address range assigned (128 Mbytes)
src/arch/riscv/isa.cc:279: info: RVV enabled, VLEN = 256 bits, ELEN = 64 bits
src/base/statistics.hh:279: warn: One of the stats is a legacy stat. Legacy stat is a stat that does not belong to any statistics::Group. Legacy stat is deprecated.
system.remote_gdb: Listening for connections on port 7000
gem5 Simulator System.  https://www.gem5.org
gem5 is copyrighted software; use the --copyright option for details.

gem5 version 24.1.0.2
gem5 compiled Mar 20 2025 02:28:21
gem5 started Mar 20 2025 11:03:19
gem5 executing on d5ae7109ba13, pid 8363
command line: /home/gem5/build/RISCV/gem5.opt ooo_core.py --localPredictorSize=256 --localCtrBits=4 --choicePredictorSize=65536 --choiceCtrBits=4 --globalPredictorSize=65536 --globalCtrBits=4 --localHistoryTableSize=65536 /home/lab2/gapbs/rv64_bfs

Beginning simulation!
src/sim/simulate.cc:199: info: Entering event queue @ 0.  Starting simulation...
src/sim/syscall_emul.cc:97: warn: ignoring syscall set_robust_list(...)
      (further warnings will be suppressed)
src/sim/syscall_emul.hh:1117: warn: readlink() called on '/proc/self/exe' may yield unexpected results in various settings.
      Returning '/home/lab2/gapbs/rv64_bfs'
src/sim/mem_state.cc:448: info: Increasing stack size by one page.
src/sim/syscall_emul.cc:86: warn: ignoring syscall mprotect(...)
src/sim/mem_state.cc:448: info: Increasing stack size by one page.
No graph input specified. (Use -h for help)
Exiting @ tick 676141000 because exiting with last active thread context
system.cpu.branchPred.committed_0::DirectCond       170025     70.53%     85.59% # Number of branches finally committed  (Count)
system.cpu.branchPred.mispredicted_0::DirectCond         9662     88.37%     97.79% # Number of committed branches that were mispredicted. (Count)

#################################################################
RUNNING LOCAL PREDICTOR WITH SIZE=512 AND LOCAL CTRL BITS=4 AND CHOICE PREDICTOR SIZE=65536 AND CHOICE CTRL BITS=4 AND GLOBAL PREDICTOR SIZE=65536 AND GLOBAL CTRL BITS=4 AND LOCAL HISTORY TABLE SIZE=65536
Global frequency set at 1000000000000 ticks per second
src/mem/dram_interface.cc:690: warn: DRAM device capacity (8192 Mbytes) does not match the address range assigned (128 Mbytes)
src/arch/riscv/isa.cc:279: info: RVV enabled, VLEN = 256 bits, ELEN = 64 bits
src/base/statistics.hh:279: warn: One of the stats is a legacy stat. Legacy stat is a stat that does not belong to any statistics::Group. Legacy stat is deprecated.
system.remote_gdb: Listening for connections on port 7000
gem5 Simulator System.  https://www.gem5.org
gem5 is copyrighted software; use the --copyright option for details.

gem5 version 24.1.0.2
gem5 compiled Mar 20 2025 02:28:21
gem5 started Mar 20 2025 11:03:21
gem5 executing on d5ae7109ba13, pid 8372
command line: /home/gem5/build/RISCV/gem5.opt ooo_core.py --localPredictorSize=512 --localCtrBits=4 --choicePredictorSize=65536 --choiceCtrBits=4 --globalPredictorSize=65536 --globalCtrBits=4 --localHistoryTableSize=65536 /home/lab2/gapbs/rv64_bfs

Beginning simulation!
src/sim/simulate.cc:199: info: Entering event queue @ 0.  Starting simulation...
src/sim/syscall_emul.cc:97: warn: ignoring syscall set_robust_list(...)
      (further warnings will be suppressed)
src/sim/syscall_emul.hh:1117: warn: readlink() called on '/proc/self/exe' may yield unexpected results in various settings.
      Returning '/home/lab2/gapbs/rv64_bfs'
src/sim/mem_state.cc:448: info: Increasing stack size by one page.
src/sim/syscall_emul.cc:86: warn: ignoring syscall mprotect(...)
src/sim/mem_state.cc:448: info: Increasing stack size by one page.
No graph input specified. (Use -h for help)
Exiting @ tick 676067500 because exiting with last active thread context
system.cpu.branchPred.committed_0::DirectCond       170025     70.53%     85.59% # Number of branches finally committed  (Count)
system.cpu.branchPred.mispredicted_0::DirectCond         9719     88.39%     97.80% # Number of committed branches that were mispredicted. (Count)

#################################################################
RUNNING LOCAL PREDICTOR WITH SIZE=1024 AND LOCAL CTRL BITS=4 AND CHOICE PREDICTOR SIZE=65536 AND CHOICE CTRL BITS=4 AND GLOBAL PREDICTOR SIZE=65536 AND GLOBAL CTRL BITS=4 AND LOCAL HISTORY TABLE SIZE=65536
Global frequency set at 1000000000000 ticks per second
src/mem/dram_interface.cc:690: warn: DRAM device capacity (8192 Mbytes) does not match the address range assigned (128 Mbytes)
src/arch/riscv/isa.cc:279: info: RVV enabled, VLEN = 256 bits, ELEN = 64 bits
src/base/statistics.hh:279: warn: One of the stats is a legacy stat. Legacy stat is a stat that does not belong to any statistics::Group. Legacy stat is deprecated.
system.remote_gdb: Listening for connections on port 7000
gem5 Simulator System.  https://www.gem5.org
gem5 is copyrighted software; use the --copyright option for details.

gem5 version 24.1.0.2
gem5 compiled Mar 20 2025 02:28:21
gem5 started Mar 20 2025 11:03:22
gem5 executing on d5ae7109ba13, pid 8381
command line: /home/gem5/build/RISCV/gem5.opt ooo_core.py --localPredictorSize=1024 --localCtrBits=4 --choicePredictorSize=65536 --choiceCtrBits=4 --globalPredictorSize=65536 --globalCtrBits=4 --localHistoryTableSize=65536 /home/lab2/gapbs/rv64_bfs

Beginning simulation!
src/sim/simulate.cc:199: info: Entering event queue @ 0.  Starting simulation...
src/sim/syscall_emul.cc:97: warn: ignoring syscall set_robust_list(...)
      (further warnings will be suppressed)
src/sim/syscall_emul.hh:1117: warn: readlink() called on '/proc/self/exe' may yield unexpected results in various settings.
      Returning '/home/lab2/gapbs/rv64_bfs'
src/sim/mem_state.cc:448: info: Increasing stack size by one page.
src/sim/syscall_emul.cc:86: warn: ignoring syscall mprotect(...)
src/sim/mem_state.cc:448: info: Increasing stack size by one page.
No graph input specified. (Use -h for help)
Exiting @ tick 676339000 because exiting with last active thread context
system.cpu.branchPred.committed_0::DirectCond       170025     70.53%     85.59% # Number of branches finally committed  (Count)
system.cpu.branchPred.mispredicted_0::DirectCond         9799     88.46%     97.81% # Number of committed branches that were mispredicted. (Count)

#################################################################
RUNNING LOCAL PREDICTOR WITH SIZE=2048 AND LOCAL CTRL BITS=4 AND CHOICE PREDICTOR SIZE=65536 AND CHOICE CTRL BITS=4 AND GLOBAL PREDICTOR SIZE=65536 AND GLOBAL CTRL BITS=4 AND LOCAL HISTORY TABLE SIZE=65536
Global frequency set at 1000000000000 ticks per second
src/mem/dram_interface.cc:690: warn: DRAM device capacity (8192 Mbytes) does not match the address range assigned (128 Mbytes)
src/arch/riscv/isa.cc:279: info: RVV enabled, VLEN = 256 bits, ELEN = 64 bits
src/base/statistics.hh:279: warn: One of the stats is a legacy stat. Legacy stat is a stat that does not belong to any statistics::Group. Legacy stat is deprecated.
system.remote_gdb: Listening for connections on port 7000
gem5 Simulator System.  https://www.gem5.org
gem5 is copyrighted software; use the --copyright option for details.

gem5 version 24.1.0.2
gem5 compiled Mar 20 2025 02:28:21
gem5 started Mar 20 2025 11:03:24
gem5 executing on d5ae7109ba13, pid 8390
command line: /home/gem5/build/RISCV/gem5.opt ooo_core.py --localPredictorSize=2048 --localCtrBits=4 --choicePredictorSize=65536 --choiceCtrBits=4 --globalPredictorSize=65536 --globalCtrBits=4 --localHistoryTableSize=65536 /home/lab2/gapbs/rv64_bfs

Beginning simulation!
src/sim/simulate.cc:199: info: Entering event queue @ 0.  Starting simulation...
src/sim/syscall_emul.cc:97: warn: ignoring syscall set_robust_list(...)
      (further warnings will be suppressed)
src/sim/syscall_emul.hh:1117: warn: readlink() called on '/proc/self/exe' may yield unexpected results in various settings.
      Returning '/home/lab2/gapbs/rv64_bfs'
src/sim/mem_state.cc:448: info: Increasing stack size by one page.
src/sim/syscall_emul.cc:86: warn: ignoring syscall mprotect(...)
src/sim/mem_state.cc:448: info: Increasing stack size by one page.
No graph input specified. (Use -h for help)
Exiting @ tick 676733500 because exiting with last active thread context
system.cpu.branchPred.committed_0::DirectCond       170025     70.53%     85.59% # Number of branches finally committed  (Count)
system.cpu.branchPred.mispredicted_0::DirectCond         9891     88.45%     97.82% # Number of committed branches that were mispredicted. (Count)

#################################################################
RUNNING LOCAL PREDICTOR WITH SIZE=4096 AND LOCAL CTRL BITS=4 AND CHOICE PREDICTOR SIZE=65536 AND CHOICE CTRL BITS=4 AND GLOBAL PREDICTOR SIZE=65536 AND GLOBAL CTRL BITS=4 AND LOCAL HISTORY TABLE SIZE=65536
Global frequency set at 1000000000000 ticks per second
src/mem/dram_interface.cc:690: warn: DRAM device capacity (8192 Mbytes) does not match the address range assigned (128 Mbytes)
src/arch/riscv/isa.cc:279: info: RVV enabled, VLEN = 256 bits, ELEN = 64 bits
src/base/statistics.hh:279: warn: One of the stats is a legacy stat. Legacy stat is a stat that does not belong to any statistics::Group. Legacy stat is deprecated.
system.remote_gdb: Listening for connections on port 7000
gem5 Simulator System.  https://www.gem5.org
gem5 is copyrighted software; use the --copyright option for details.

gem5 version 24.1.0.2
gem5 compiled Mar 20 2025 02:28:21
gem5 started Mar 20 2025 11:03:26
gem5 executing on d5ae7109ba13, pid 8399
command line: /home/gem5/build/RISCV/gem5.opt ooo_core.py --localPredictorSize=4096 --localCtrBits=4 --choicePredictorSize=65536 --choiceCtrBits=4 --globalPredictorSize=65536 --globalCtrBits=4 --localHistoryTableSize=65536 /home/lab2/gapbs/rv64_bfs

Beginning simulation!
src/sim/simulate.cc:199: info: Entering event queue @ 0.  Starting simulation...
src/sim/syscall_emul.cc:97: warn: ignoring syscall set_robust_list(...)
      (further warnings will be suppressed)
src/sim/syscall_emul.hh:1117: warn: readlink() called on '/proc/self/exe' may yield unexpected results in various settings.
      Returning '/home/lab2/gapbs/rv64_bfs'
src/sim/mem_state.cc:448: info: Increasing stack size by one page.
src/sim/syscall_emul.cc:86: warn: ignoring syscall mprotect(...)
src/sim/mem_state.cc:448: info: Increasing stack size by one page.
No graph input specified. (Use -h for help)
Exiting @ tick 677200500 because exiting with last active thread context
system.cpu.branchPred.committed_0::DirectCond       170025     70.53%     85.59% # Number of branches finally committed  (Count)
system.cpu.branchPred.mispredicted_0::DirectCond         9981     88.57%     97.83% # Number of committed branches that were mispredicted. (Count)

#################################################################
RUNNING LOCAL PREDICTOR WITH SIZE=8192 AND LOCAL CTRL BITS=4 AND CHOICE PREDICTOR SIZE=65536 AND CHOICE CTRL BITS=4 AND GLOBAL PREDICTOR SIZE=65536 AND GLOBAL CTRL BITS=4 AND LOCAL HISTORY TABLE SIZE=65536
Global frequency set at 1000000000000 ticks per second
src/mem/dram_interface.cc:690: warn: DRAM device capacity (8192 Mbytes) does not match the address range assigned (128 Mbytes)
src/arch/riscv/isa.cc:279: info: RVV enabled, VLEN = 256 bits, ELEN = 64 bits
src/base/statistics.hh:279: warn: One of the stats is a legacy stat. Legacy stat is a stat that does not belong to any statistics::Group. Legacy stat is deprecated.
system.remote_gdb: Listening for connections on port 7000
gem5 Simulator System.  https://www.gem5.org
gem5 is copyrighted software; use the --copyright option for details.

gem5 version 24.1.0.2
gem5 compiled Mar 20 2025 02:28:21
gem5 started Mar 20 2025 11:03:28
gem5 executing on d5ae7109ba13, pid 8408
command line: /home/gem5/build/RISCV/gem5.opt ooo_core.py --localPredictorSize=8192 --localCtrBits=4 --choicePredictorSize=65536 --choiceCtrBits=4 --globalPredictorSize=65536 --globalCtrBits=4 --localHistoryTableSize=65536 /home/lab2/gapbs/rv64_bfs

Beginning simulation!
src/sim/simulate.cc:199: info: Entering event queue @ 0.  Starting simulation...
src/sim/syscall_emul.cc:97: warn: ignoring syscall set_robust_list(...)
      (further warnings will be suppressed)
src/sim/syscall_emul.hh:1117: warn: readlink() called on '/proc/self/exe' may yield unexpected results in various settings.
      Returning '/home/lab2/gapbs/rv64_bfs'
src/sim/mem_state.cc:448: info: Increasing stack size by one page.
src/sim/syscall_emul.cc:86: warn: ignoring syscall mprotect(...)
src/sim/mem_state.cc:448: info: Increasing stack size by one page.
No graph input specified. (Use -h for help)
Exiting @ tick 678101500 because exiting with last active thread context
system.cpu.branchPred.committed_0::DirectCond       170025     70.53%     85.59% # Number of branches finally committed  (Count)
system.cpu.branchPred.mispredicted_0::DirectCond        10021     88.74%     97.86% # Number of committed branches that were mispredicted. (Count)

#################################################################
RUNNING LOCAL PREDICTOR WITH SIZE=16384 AND LOCAL CTRL BITS=4 AND CHOICE PREDICTOR SIZE=65536 AND CHOICE CTRL BITS=4 AND GLOBAL PREDICTOR SIZE=65536 AND GLOBAL CTRL BITS=4 AND LOCAL HISTORY TABLE SIZE=65536
Global frequency set at 1000000000000 ticks per second
src/mem/dram_interface.cc:690: warn: DRAM device capacity (8192 Mbytes) does not match the address range assigned (128 Mbytes)
src/arch/riscv/isa.cc:279: info: RVV enabled, VLEN = 256 bits, ELEN = 64 bits
src/base/statistics.hh:279: warn: One of the stats is a legacy stat. Legacy stat is a stat that does not belong to any statistics::Group. Legacy stat is deprecated.
system.remote_gdb: Listening for connections on port 7000
gem5 Simulator System.  https://www.gem5.org
gem5 is copyrighted software; use the --copyright option for details.

gem5 version 24.1.0.2
gem5 compiled Mar 20 2025 02:28:21
gem5 started Mar 20 2025 11:03:29
gem5 executing on d5ae7109ba13, pid 8417
command line: /home/gem5/build/RISCV/gem5.opt ooo_core.py --localPredictorSize=16384 --localCtrBits=4 --choicePredictorSize=65536 --choiceCtrBits=4 --globalPredictorSize=65536 --globalCtrBits=4 --localHistoryTableSize=65536 /home/lab2/gapbs/rv64_bfs

Beginning simulation!
src/sim/simulate.cc:199: info: Entering event queue @ 0.  Starting simulation...
src/sim/syscall_emul.cc:97: warn: ignoring syscall set_robust_list(...)
      (further warnings will be suppressed)
src/sim/syscall_emul.hh:1117: warn: readlink() called on '/proc/self/exe' may yield unexpected results in various settings.
      Returning '/home/lab2/gapbs/rv64_bfs'
src/sim/mem_state.cc:448: info: Increasing stack size by one page.
src/sim/syscall_emul.cc:86: warn: ignoring syscall mprotect(...)
src/sim/mem_state.cc:448: info: Increasing stack size by one page.
No graph input specified. (Use -h for help)
Exiting @ tick 679048000 because exiting with last active thread context
system.cpu.branchPred.committed_0::DirectCond       170025     70.53%     85.59% # Number of branches finally committed  (Count)
system.cpu.branchPred.mispredicted_0::DirectCond        10054     88.74%     97.84% # Number of committed branches that were mispredicted. (Count)

#################################################################
RUNNING LOCAL PREDICTOR WITH SIZE=32768 AND LOCAL CTRL BITS=4 AND CHOICE PREDICTOR SIZE=65536 AND CHOICE CTRL BITS=4 AND GLOBAL PREDICTOR SIZE=65536 AND GLOBAL CTRL BITS=4 AND LOCAL HISTORY TABLE SIZE=65536
Global frequency set at 1000000000000 ticks per second
src/mem/dram_interface.cc:690: warn: DRAM device capacity (8192 Mbytes) does not match the address range assigned (128 Mbytes)
src/arch/riscv/isa.cc:279: info: RVV enabled, VLEN = 256 bits, ELEN = 64 bits
src/base/statistics.hh:279: warn: One of the stats is a legacy stat. Legacy stat is a stat that does not belong to any statistics::Group. Legacy stat is deprecated.
system.remote_gdb: Listening for connections on port 7000
gem5 Simulator System.  https://www.gem5.org
gem5 is copyrighted software; use the --copyright option for details.

gem5 version 24.1.0.2
gem5 compiled Mar 20 2025 02:28:21
gem5 started Mar 20 2025 11:03:31
gem5 executing on d5ae7109ba13, pid 8426
command line: /home/gem5/build/RISCV/gem5.opt ooo_core.py --localPredictorSize=32768 --localCtrBits=4 --choicePredictorSize=65536 --choiceCtrBits=4 --globalPredictorSize=65536 --globalCtrBits=4 --localHistoryTableSize=65536 /home/lab2/gapbs/rv64_bfs

Beginning simulation!
src/sim/simulate.cc:199: info: Entering event queue @ 0.  Starting simulation...
src/sim/syscall_emul.cc:97: warn: ignoring syscall set_robust_list(...)
      (further warnings will be suppressed)
src/sim/syscall_emul.hh:1117: warn: readlink() called on '/proc/self/exe' may yield unexpected results in various settings.
      Returning '/home/lab2/gapbs/rv64_bfs'
src/sim/mem_state.cc:448: info: Increasing stack size by one page.
src/sim/syscall_emul.cc:86: warn: ignoring syscall mprotect(...)
src/sim/mem_state.cc:448: info: Increasing stack size by one page.
No graph input specified. (Use -h for help)
Exiting @ tick 679048000 because exiting with last active thread context
system.cpu.branchPred.committed_0::DirectCond       170025     70.53%     85.59% # Number of branches finally committed  (Count)
system.cpu.branchPred.mispredicted_0::DirectCond        10070     88.76%     97.84% # Number of committed branches that were mispredicted. (Count)

#################################################################
RUNNING LOCAL PREDICTOR WITH SIZE=65536 AND LOCAL CTRL BITS=4 AND CHOICE PREDICTOR SIZE=65536 AND CHOICE CTRL BITS=4 AND GLOBAL PREDICTOR SIZE=65536 AND GLOBAL CTRL BITS=4 AND LOCAL HISTORY TABLE SIZE=65536
Global frequency set at 1000000000000 ticks per second
src/mem/dram_interface.cc:690: warn: DRAM device capacity (8192 Mbytes) does not match the address range assigned (128 Mbytes)
src/arch/riscv/isa.cc:279: info: RVV enabled, VLEN = 256 bits, ELEN = 64 bits
src/base/statistics.hh:279: warn: One of the stats is a legacy stat. Legacy stat is a stat that does not belong to any statistics::Group. Legacy stat is deprecated.
system.remote_gdb: Listening for connections on port 7000
gem5 Simulator System.  https://www.gem5.org
gem5 is copyrighted software; use the --copyright option for details.

gem5 version 24.1.0.2
gem5 compiled Mar 20 2025 02:28:21
gem5 started Mar 20 2025 11:03:33
gem5 executing on d5ae7109ba13, pid 8435
command line: /home/gem5/build/RISCV/gem5.opt ooo_core.py --localPredictorSize=65536 --localCtrBits=4 --choicePredictorSize=65536 --choiceCtrBits=4 --globalPredictorSize=65536 --globalCtrBits=4 --localHistoryTableSize=65536 /home/lab2/gapbs/rv64_bfs

Beginning simulation!
src/sim/simulate.cc:199: info: Entering event queue @ 0.  Starting simulation...
src/sim/syscall_emul.cc:97: warn: ignoring syscall set_robust_list(...)
      (further warnings will be suppressed)
src/sim/syscall_emul.hh:1117: warn: readlink() called on '/proc/self/exe' may yield unexpected results in various settings.
      Returning '/home/lab2/gapbs/rv64_bfs'
src/sim/mem_state.cc:448: info: Increasing stack size by one page.
src/sim/syscall_emul.cc:86: warn: ignoring syscall mprotect(...)
src/sim/mem_state.cc:448: info: Increasing stack size by one page.
No graph input specified. (Use -h for help)
Exiting @ tick 678946000 because exiting with last active thread context
system.cpu.branchPred.committed_0::DirectCond       170025     70.53%     85.59% # Number of branches finally committed  (Count)
system.cpu.branchPred.mispredicted_0::DirectCond        10093     88.82%     97.86% # Number of committed branches that were mispredicted. (Count)

