
#################################################################
RUNNING associativity=1 AND numEntries=1
Global frequency set at 1000000000000 ticks per second
src/mem/dram_interface.cc:690: warn: DRAM device capacity (8192 Mbytes) does not match the address range assigned (128 Mbytes)
src/arch/riscv/isa.cc:279: info: RVV enabled, VLEN = 256 bits, ELEN = 64 bits
src/base/statistics.hh:279: warn: One of the stats is a legacy stat. Legacy stat is a stat that does not belong to any statistics::Group. Legacy stat is deprecated.
system.remote_gdb: Listening for connections on port 7000
gem5 Simulator System.  https://www.gem5.org
gem5 is copyrighted software; use the --copyright option for details.

gem5 version 24.1.0.2
gem5 compiled Mar 17 2025 10:51:38
gem5 started Mar 23 2025 14:20:02
gem5 executing on DESKTOP-64ACR4L, pid 31096
command line: /home/teravyte/gem5/build/RISCV/gem5.opt ooo_core.py --associativity=1 --numEntries=1 /home/teravyte/gapbs/rv64_bfs

Beginning simulation!
src/sim/simulate.cc:199: info: Entering event queue @ 0.  Starting simulation...
src/sim/syscall_emul.cc:97: warn: ignoring syscall set_robust_list(...)
      (further warnings will be suppressed)
src/sim/syscall_emul.hh:1117: warn: readlink() called on '/proc/self/exe' may yield unexpected results in various settings.
      Returning '/home/teravyte/gapbs/rv64_bfs'
src/sim/mem_state.cc:448: info: Increasing stack size by one page.
src/sim/syscall_emul.cc:86: warn: ignoring syscall mprotect(...)
src/sim/mem_state.cc:448: info: Increasing stack size by one page.
src/sim/mem_state.cc:448: info: Increasing stack size by one page.
Generate Time:       0.00388
Build Time:          0.00133
Graph has 1024 nodes and 10496 undirected edges for degree: 10
Trial Time:          0.00009
Trial Time:          0.00008
Trial Time:          0.00008
Trial Time:          0.00007
Trial Time:          0.00008
Average Time:        0.00008
Exiting @ tick 8197501000 because exiting with last active thread context
system.cpu.branchPred.BTBHitRatio            0.201221                       # BTB Hit Ratio (Ratio)

#################################################################
RUNNING associativity=2 AND numEntries=1
Global frequency set at 1000000000000 ticks per second
src/mem/dram_interface.cc:690: warn: DRAM device capacity (8192 Mbytes) does not match the address range assigned (128 Mbytes)
gem5.opt: src/base/intmath.hh:61: constexpr std::enable_if_t<is_integral_v<T>, int> gem5::floorLog2(T) [with T = unsigned int; std::enable_if_t<is_integral_v<T>, int> = int]: Assertion `x > 0' failed.
Program aborted at tick 0
--- BEGIN LIBC BACKTRACE ---
/home/teravyte/gem5/build/RISCV/gem5.opt(_ZN4gem515print_backtraceEv+0x30)[0x561ecc22a660]
/home/teravyte/gem5/build/RISCV/gem5.opt(_ZN4gem512abortHandlerEi+0x4c)[0x561ecc250f7c]
/lib/x86_64-linux-gnu/libc.so.6(+0x45330)[0x7f34a423f330]
/lib/x86_64-linux-gnu/libc.so.6(pthread_kill+0x11c)[0x7f34a4298b2c]
/lib/x86_64-linux-gnu/libc.so.6(gsignal+0x1e)[0x7f34a423f27e]
/lib/x86_64-linux-gnu/libc.so.6(abort+0xdf)[0x7f34a42228ff]
/lib/x86_64-linux-gnu/libc.so.6(+0x2881b)[0x7f34a422281b]
/lib/x86_64-linux-gnu/libc.so.6(+0x3b517)[0x7f34a4235517]
/home/teravyte/gem5/build/RISCV/gem5.opt(+0x17302e5)[0x561ecb34a2e5]
/home/teravyte/gem5/build/RISCV/gem5.opt(_ZNK4gem523BTBSetAssociativeParams6createEv+0x330)[0x561ecb34b2c0]
/home/teravyte/gem5/build/RISCV/gem5.opt(+0x173465e)[0x561ecb34e65e]
/home/teravyte/gem5/build/RISCV/gem5.opt(+0xe397ee)[0x561ecaa537ee]
/lib/x86_64-linux-gnu/libpython3.12.so.1.0(+0x1df488)[0x7f34a5289488]
/lib/x86_64-linux-gnu/libpython3.12.so.1.0(_PyObject_MakeTpCall+0x8f)[0x7f34a522c7af]
/lib/x86_64-linux-gnu/libpython3.12.so.1.0(_PyEval_EvalFrameDefault+0x40ee)[0x7f34a51c75ee]
/lib/x86_64-linux-gnu/libpython3.12.so.1.0(PyEval_EvalCode+0x20f)[0x7f34a534a86f]
/lib/x86_64-linux-gnu/libpython3.12.so.1.0(+0x29c800)[0x7f34a5346800]
/lib/x86_64-linux-gnu/libpython3.12.so.1.0(+0x1dfaac)[0x7f34a5289aac]
/lib/x86_64-linux-gnu/libpython3.12.so.1.0(PyObject_Vectorcall+0x5c)[0x7f34a522cafc]
/lib/x86_64-linux-gnu/libpython3.12.so.1.0(_PyEval_EvalFrameDefault+0x40ee)[0x7f34a51c75ee]
/home/teravyte/gem5/build/RISCV/gem5.opt(+0xf5d930)[0x561ecab77930]
/home/teravyte/gem5/build/RISCV/gem5.opt(main+0x225)[0x561ecaa3c785]
/lib/x86_64-linux-gnu/libc.so.6(+0x2a1ca)[0x7f34a42241ca]
/lib/x86_64-linux-gnu/libc.so.6(__libc_start_main+0x8b)[0x7f34a422428b]
/home/teravyte/gem5/build/RISCV/gem5.opt(_start+0x25)[0x561ecaa43135]
--- END LIBC BACKTRACE ---
For more info on how to address this issue, please visit https://www.gem5.org/documentation/general_docs/common-errors/ 


#################################################################
RUNNING associativity=4 AND numEntries=1
Global frequency set at 1000000000000 ticks per second
src/mem/dram_interface.cc:690: warn: DRAM device capacity (8192 Mbytes) does not match the address range assigned (128 Mbytes)
gem5.opt: src/base/intmath.hh:61: constexpr std::enable_if_t<is_integral_v<T>, int> gem5::floorLog2(T) [with T = unsigned int; std::enable_if_t<is_integral_v<T>, int> = int]: Assertion `x > 0' failed.
Program aborted at tick 0
--- BEGIN LIBC BACKTRACE ---
/home/teravyte/gem5/build/RISCV/gem5.opt(_ZN4gem515print_backtraceEv+0x30)[0x55b94f3cd660]
/home/teravyte/gem5/build/RISCV/gem5.opt(_ZN4gem512abortHandlerEi+0x4c)[0x55b94f3f3f7c]
/lib/x86_64-linux-gnu/libc.so.6(+0x45330)[0x7efeb302c330]
/lib/x86_64-linux-gnu/libc.so.6(pthread_kill+0x11c)[0x7efeb3085b2c]
/lib/x86_64-linux-gnu/libc.so.6(gsignal+0x1e)[0x7efeb302c27e]
/lib/x86_64-linux-gnu/libc.so.6(abort+0xdf)[0x7efeb300f8ff]
/lib/x86_64-linux-gnu/libc.so.6(+0x2881b)[0x7efeb300f81b]
/lib/x86_64-linux-gnu/libc.so.6(+0x3b517)[0x7efeb3022517]
/home/teravyte/gem5/build/RISCV/gem5.opt(+0x17302e5)[0x55b94e4ed2e5]
/home/teravyte/gem5/build/RISCV/gem5.opt(_ZNK4gem523BTBSetAssociativeParams6createEv+0x330)[0x55b94e4ee2c0]
/home/teravyte/gem5/build/RISCV/gem5.opt(+0x173465e)[0x55b94e4f165e]
/home/teravyte/gem5/build/RISCV/gem5.opt(+0xe397ee)[0x55b94dbf67ee]
/lib/x86_64-linux-gnu/libpython3.12.so.1.0(+0x1df488)[0x7efeb4076488]
/lib/x86_64-linux-gnu/libpython3.12.so.1.0(_PyObject_MakeTpCall+0x8f)[0x7efeb40197af]
/lib/x86_64-linux-gnu/libpython3.12.so.1.0(_PyEval_EvalFrameDefault+0x40ee)[0x7efeb3fb45ee]
/lib/x86_64-linux-gnu/libpython3.12.so.1.0(PyEval_EvalCode+0x20f)[0x7efeb413786f]
/lib/x86_64-linux-gnu/libpython3.12.so.1.0(+0x29c800)[0x7efeb4133800]
/lib/x86_64-linux-gnu/libpython3.12.so.1.0(+0x1dfaac)[0x7efeb4076aac]
/lib/x86_64-linux-gnu/libpython3.12.so.1.0(PyObject_Vectorcall+0x5c)[0x7efeb4019afc]
/lib/x86_64-linux-gnu/libpython3.12.so.1.0(_PyEval_EvalFrameDefault+0x40ee)[0x7efeb3fb45ee]
/home/teravyte/gem5/build/RISCV/gem5.opt(+0xf5d930)[0x55b94dd1a930]
/home/teravyte/gem5/build/RISCV/gem5.opt(main+0x225)[0x55b94dbdf785]
/lib/x86_64-linux-gnu/libc.so.6(+0x2a1ca)[0x7efeb30111ca]
/lib/x86_64-linux-gnu/libc.so.6(__libc_start_main+0x8b)[0x7efeb301128b]
/home/teravyte/gem5/build/RISCV/gem5.opt(_start+0x25)[0x55b94dbe6135]
--- END LIBC BACKTRACE ---
For more info on how to address this issue, please visit https://www.gem5.org/documentation/general_docs/common-errors/ 


#################################################################
RUNNING associativity=8 AND numEntries=1
Global frequency set at 1000000000000 ticks per second
src/mem/dram_interface.cc:690: warn: DRAM device capacity (8192 Mbytes) does not match the address range assigned (128 Mbytes)
gem5.opt: src/base/intmath.hh:61: constexpr std::enable_if_t<is_integral_v<T>, int> gem5::floorLog2(T) [with T = unsigned int; std::enable_if_t<is_integral_v<T>, int> = int]: Assertion `x > 0' failed.
Program aborted at tick 0
--- BEGIN LIBC BACKTRACE ---
/home/teravyte/gem5/build/RISCV/gem5.opt(_ZN4gem515print_backtraceEv+0x30)[0x558572d77660]
/home/teravyte/gem5/build/RISCV/gem5.opt(_ZN4gem512abortHandlerEi+0x4c)[0x558572d9df7c]
/lib/x86_64-linux-gnu/libc.so.6(+0x45330)[0x7f6d7b06c330]
/lib/x86_64-linux-gnu/libc.so.6(pthread_kill+0x11c)[0x7f6d7b0c5b2c]
/lib/x86_64-linux-gnu/libc.so.6(gsignal+0x1e)[0x7f6d7b06c27e]
/lib/x86_64-linux-gnu/libc.so.6(abort+0xdf)[0x7f6d7b04f8ff]
/lib/x86_64-linux-gnu/libc.so.6(+0x2881b)[0x7f6d7b04f81b]
/lib/x86_64-linux-gnu/libc.so.6(+0x3b517)[0x7f6d7b062517]
/home/teravyte/gem5/build/RISCV/gem5.opt(+0x17302e5)[0x558571e972e5]
/home/teravyte/gem5/build/RISCV/gem5.opt(_ZNK4gem523BTBSetAssociativeParams6createEv+0x330)[0x558571e982c0]
/home/teravyte/gem5/build/RISCV/gem5.opt(+0x173465e)[0x558571e9b65e]
/home/teravyte/gem5/build/RISCV/gem5.opt(+0xe397ee)[0x5585715a07ee]
/lib/x86_64-linux-gnu/libpython3.12.so.1.0(+0x1df488)[0x7f6d7c0b6488]
/lib/x86_64-linux-gnu/libpython3.12.so.1.0(_PyObject_MakeTpCall+0x8f)[0x7f6d7c0597af]
/lib/x86_64-linux-gnu/libpython3.12.so.1.0(_PyEval_EvalFrameDefault+0x40ee)[0x7f6d7bff45ee]
/lib/x86_64-linux-gnu/libpython3.12.so.1.0(PyEval_EvalCode+0x20f)[0x7f6d7c17786f]
/lib/x86_64-linux-gnu/libpython3.12.so.1.0(+0x29c800)[0x7f6d7c173800]
/lib/x86_64-linux-gnu/libpython3.12.so.1.0(+0x1dfaac)[0x7f6d7c0b6aac]
/lib/x86_64-linux-gnu/libpython3.12.so.1.0(PyObject_Vectorcall+0x5c)[0x7f6d7c059afc]
/lib/x86_64-linux-gnu/libpython3.12.so.1.0(_PyEval_EvalFrameDefault+0x40ee)[0x7f6d7bff45ee]
/home/teravyte/gem5/build/RISCV/gem5.opt(+0xf5d930)[0x5585716c4930]
/home/teravyte/gem5/build/RISCV/gem5.opt(main+0x225)[0x558571589785]
/lib/x86_64-linux-gnu/libc.so.6(+0x2a1ca)[0x7f6d7b0511ca]
/lib/x86_64-linux-gnu/libc.so.6(__libc_start_main+0x8b)[0x7f6d7b05128b]
/home/teravyte/gem5/build/RISCV/gem5.opt(_start+0x25)[0x558571590135]
--- END LIBC BACKTRACE ---
For more info on how to address this issue, please visit https://www.gem5.org/documentation/general_docs/common-errors/ 


#################################################################
RUNNING associativity=16 AND numEntries=1
Global frequency set at 1000000000000 ticks per second
src/mem/dram_interface.cc:690: warn: DRAM device capacity (8192 Mbytes) does not match the address range assigned (128 Mbytes)
gem5.opt: src/base/intmath.hh:61: constexpr std::enable_if_t<is_integral_v<T>, int> gem5::floorLog2(T) [with T = unsigned int; std::enable_if_t<is_integral_v<T>, int> = int]: Assertion `x > 0' failed.
Program aborted at tick 0
--- BEGIN LIBC BACKTRACE ---
/home/teravyte/gem5/build/RISCV/gem5.opt(_ZN4gem515print_backtraceEv+0x30)[0x555f71bff660]
/home/teravyte/gem5/build/RISCV/gem5.opt(_ZN4gem512abortHandlerEi+0x4c)[0x555f71c25f7c]
/lib/x86_64-linux-gnu/libc.so.6(+0x45330)[0x7fdb2387d330]
/lib/x86_64-linux-gnu/libc.so.6(pthread_kill+0x11c)[0x7fdb238d6b2c]
/lib/x86_64-linux-gnu/libc.so.6(gsignal+0x1e)[0x7fdb2387d27e]
/lib/x86_64-linux-gnu/libc.so.6(abort+0xdf)[0x7fdb238608ff]
/lib/x86_64-linux-gnu/libc.so.6(+0x2881b)[0x7fdb2386081b]
/lib/x86_64-linux-gnu/libc.so.6(+0x3b517)[0x7fdb23873517]
/home/teravyte/gem5/build/RISCV/gem5.opt(+0x17302e5)[0x555f70d1f2e5]
/home/teravyte/gem5/build/RISCV/gem5.opt(_ZNK4gem523BTBSetAssociativeParams6createEv+0x330)[0x555f70d202c0]
/home/teravyte/gem5/build/RISCV/gem5.opt(+0x173465e)[0x555f70d2365e]
/home/teravyte/gem5/build/RISCV/gem5.opt(+0xe397ee)[0x555f704287ee]
/lib/x86_64-linux-gnu/libpython3.12.so.1.0(+0x1df488)[0x7fdb248c7488]
/lib/x86_64-linux-gnu/libpython3.12.so.1.0(_PyObject_MakeTpCall+0x8f)[0x7fdb2486a7af]
/lib/x86_64-linux-gnu/libpython3.12.so.1.0(_PyEval_EvalFrameDefault+0x40ee)[0x7fdb248055ee]
/lib/x86_64-linux-gnu/libpython3.12.so.1.0(PyEval_EvalCode+0x20f)[0x7fdb2498886f]
/lib/x86_64-linux-gnu/libpython3.12.so.1.0(+0x29c800)[0x7fdb24984800]
/lib/x86_64-linux-gnu/libpython3.12.so.1.0(+0x1dfaac)[0x7fdb248c7aac]
/lib/x86_64-linux-gnu/libpython3.12.so.1.0(PyObject_Vectorcall+0x5c)[0x7fdb2486aafc]
/lib/x86_64-linux-gnu/libpython3.12.so.1.0(_PyEval_EvalFrameDefault+0x40ee)[0x7fdb248055ee]
/home/teravyte/gem5/build/RISCV/gem5.opt(+0xf5d930)[0x555f7054c930]
/home/teravyte/gem5/build/RISCV/gem5.opt(main+0x225)[0x555f70411785]
/lib/x86_64-linux-gnu/libc.so.6(+0x2a1ca)[0x7fdb238621ca]
/lib/x86_64-linux-gnu/libc.so.6(__libc_start_main+0x8b)[0x7fdb2386228b]
/home/teravyte/gem5/build/RISCV/gem5.opt(_start+0x25)[0x555f70418135]
--- END LIBC BACKTRACE ---
For more info on how to address this issue, please visit https://www.gem5.org/documentation/general_docs/common-errors/ 


#################################################################
RUNNING associativity=32 AND numEntries=1
Global frequency set at 1000000000000 ticks per second
src/mem/dram_interface.cc:690: warn: DRAM device capacity (8192 Mbytes) does not match the address range assigned (128 Mbytes)
gem5.opt: src/base/intmath.hh:61: constexpr std::enable_if_t<is_integral_v<T>, int> gem5::floorLog2(T) [with T = unsigned int; std::enable_if_t<is_integral_v<T>, int> = int]: Assertion `x > 0' failed.
Program aborted at tick 0
--- BEGIN LIBC BACKTRACE ---
/home/teravyte/gem5/build/RISCV/gem5.opt(_ZN4gem515print_backtraceEv+0x30)[0x557e6f342660]
/home/teravyte/gem5/build/RISCV/gem5.opt(_ZN4gem512abortHandlerEi+0x4c)[0x557e6f368f7c]
/lib/x86_64-linux-gnu/libc.so.6(+0x45330)[0x7f14c8c6f330]
/lib/x86_64-linux-gnu/libc.so.6(pthread_kill+0x11c)[0x7f14c8cc8b2c]
/lib/x86_64-linux-gnu/libc.so.6(gsignal+0x1e)[0x7f14c8c6f27e]
/lib/x86_64-linux-gnu/libc.so.6(abort+0xdf)[0x7f14c8c528ff]
/lib/x86_64-linux-gnu/libc.so.6(+0x2881b)[0x7f14c8c5281b]
/lib/x86_64-linux-gnu/libc.so.6(+0x3b517)[0x7f14c8c65517]
/home/teravyte/gem5/build/RISCV/gem5.opt(+0x17302e5)[0x557e6e4622e5]
/home/teravyte/gem5/build/RISCV/gem5.opt(_ZNK4gem523BTBSetAssociativeParams6createEv+0x330)[0x557e6e4632c0]
/home/teravyte/gem5/build/RISCV/gem5.opt(+0x173465e)[0x557e6e46665e]
/home/teravyte/gem5/build/RISCV/gem5.opt(+0xe397ee)[0x557e6db6b7ee]
/lib/x86_64-linux-gnu/libpython3.12.so.1.0(+0x1df488)[0x7f14c9cb9488]
/lib/x86_64-linux-gnu/libpython3.12.so.1.0(_PyObject_MakeTpCall+0x8f)[0x7f14c9c5c7af]
/lib/x86_64-linux-gnu/libpython3.12.so.1.0(_PyEval_EvalFrameDefault+0x40ee)[0x7f14c9bf75ee]
/lib/x86_64-linux-gnu/libpython3.12.so.1.0(PyEval_EvalCode+0x20f)[0x7f14c9d7a86f]
/lib/x86_64-linux-gnu/libpython3.12.so.1.0(+0x29c800)[0x7f14c9d76800]
/lib/x86_64-linux-gnu/libpython3.12.so.1.0(+0x1dfaac)[0x7f14c9cb9aac]
/lib/x86_64-linux-gnu/libpython3.12.so.1.0(PyObject_Vectorcall+0x5c)[0x7f14c9c5cafc]
/lib/x86_64-linux-gnu/libpython3.12.so.1.0(_PyEval_EvalFrameDefault+0x40ee)[0x7f14c9bf75ee]
/home/teravyte/gem5/build/RISCV/gem5.opt(+0xf5d930)[0x557e6dc8f930]
/home/teravyte/gem5/build/RISCV/gem5.opt(main+0x225)[0x557e6db54785]
/lib/x86_64-linux-gnu/libc.so.6(+0x2a1ca)[0x7f14c8c541ca]
/lib/x86_64-linux-gnu/libc.so.6(__libc_start_main+0x8b)[0x7f14c8c5428b]
/home/teravyte/gem5/build/RISCV/gem5.opt(_start+0x25)[0x557e6db5b135]
--- END LIBC BACKTRACE ---
For more info on how to address this issue, please visit https://www.gem5.org/documentation/general_docs/common-errors/ 


#################################################################
RUNNING associativity=64 AND numEntries=1
Global frequency set at 1000000000000 ticks per second
src/mem/dram_interface.cc:690: warn: DRAM device capacity (8192 Mbytes) does not match the address range assigned (128 Mbytes)
gem5.opt: src/base/intmath.hh:61: constexpr std::enable_if_t<is_integral_v<T>, int> gem5::floorLog2(T) [with T = unsigned int; std::enable_if_t<is_integral_v<T>, int> = int]: Assertion `x > 0' failed.
Program aborted at tick 0
--- BEGIN LIBC BACKTRACE ---
/home/teravyte/gem5/build/RISCV/gem5.opt(_ZN4gem515print_backtraceEv+0x30)[0x55afe2281660]
/home/teravyte/gem5/build/RISCV/gem5.opt(_ZN4gem512abortHandlerEi+0x4c)[0x55afe22a7f7c]
/lib/x86_64-linux-gnu/libc.so.6(+0x45330)[0x7f33cfee8330]
/lib/x86_64-linux-gnu/libc.so.6(pthread_kill+0x11c)[0x7f33cff41b2c]
/lib/x86_64-linux-gnu/libc.so.6(gsignal+0x1e)[0x7f33cfee827e]
/lib/x86_64-linux-gnu/libc.so.6(abort+0xdf)[0x7f33cfecb8ff]
/lib/x86_64-linux-gnu/libc.so.6(+0x2881b)[0x7f33cfecb81b]
/lib/x86_64-linux-gnu/libc.so.6(+0x3b517)[0x7f33cfede517]
/home/teravyte/gem5/build/RISCV/gem5.opt(+0x17302e5)[0x55afe13a12e5]
/home/teravyte/gem5/build/RISCV/gem5.opt(_ZNK4gem523BTBSetAssociativeParams6createEv+0x330)[0x55afe13a22c0]
/home/teravyte/gem5/build/RISCV/gem5.opt(+0x173465e)[0x55afe13a565e]
/home/teravyte/gem5/build/RISCV/gem5.opt(+0xe397ee)[0x55afe0aaa7ee]
/lib/x86_64-linux-gnu/libpython3.12.so.1.0(+0x1df488)[0x7f33d0f32488]
/lib/x86_64-linux-gnu/libpython3.12.so.1.0(_PyObject_MakeTpCall+0x8f)[0x7f33d0ed57af]
/lib/x86_64-linux-gnu/libpython3.12.so.1.0(_PyEval_EvalFrameDefault+0x40ee)[0x7f33d0e705ee]
/lib/x86_64-linux-gnu/libpython3.12.so.1.0(PyEval_EvalCode+0x20f)[0x7f33d0ff386f]
/lib/x86_64-linux-gnu/libpython3.12.so.1.0(+0x29c800)[0x7f33d0fef800]
/lib/x86_64-linux-gnu/libpython3.12.so.1.0(+0x1dfaac)[0x7f33d0f32aac]
/lib/x86_64-linux-gnu/libpython3.12.so.1.0(PyObject_Vectorcall+0x5c)[0x7f33d0ed5afc]
/lib/x86_64-linux-gnu/libpython3.12.so.1.0(_PyEval_EvalFrameDefault+0x40ee)[0x7f33d0e705ee]
/home/teravyte/gem5/build/RISCV/gem5.opt(+0xf5d930)[0x55afe0bce930]
/home/teravyte/gem5/build/RISCV/gem5.opt(main+0x225)[0x55afe0a93785]
/lib/x86_64-linux-gnu/libc.so.6(+0x2a1ca)[0x7f33cfecd1ca]
/lib/x86_64-linux-gnu/libc.so.6(__libc_start_main+0x8b)[0x7f33cfecd28b]
/home/teravyte/gem5/build/RISCV/gem5.opt(_start+0x25)[0x55afe0a9a135]
--- END LIBC BACKTRACE ---
For more info on how to address this issue, please visit https://www.gem5.org/documentation/general_docs/common-errors/ 


#################################################################
RUNNING associativity=128 AND numEntries=1
Global frequency set at 1000000000000 ticks per second
src/mem/dram_interface.cc:690: warn: DRAM device capacity (8192 Mbytes) does not match the address range assigned (128 Mbytes)
gem5.opt: src/base/intmath.hh:61: constexpr std::enable_if_t<is_integral_v<T>, int> gem5::floorLog2(T) [with T = unsigned int; std::enable_if_t<is_integral_v<T>, int> = int]: Assertion `x > 0' failed.
Program aborted at tick 0
--- BEGIN LIBC BACKTRACE ---
/home/teravyte/gem5/build/RISCV/gem5.opt(_ZN4gem515print_backtraceEv+0x30)[0x5652b5aac660]
/home/teravyte/gem5/build/RISCV/gem5.opt(_ZN4gem512abortHandlerEi+0x4c)[0x5652b5ad2f7c]
/lib/x86_64-linux-gnu/libc.so.6(+0x45330)[0x7ff4cc013330]
/lib/x86_64-linux-gnu/libc.so.6(pthread_kill+0x11c)[0x7ff4cc06cb2c]
/lib/x86_64-linux-gnu/libc.so.6(gsignal+0x1e)[0x7ff4cc01327e]
/lib/x86_64-linux-gnu/libc.so.6(abort+0xdf)[0x7ff4cbff68ff]
/lib/x86_64-linux-gnu/libc.so.6(+0x2881b)[0x7ff4cbff681b]
/lib/x86_64-linux-gnu/libc.so.6(+0x3b517)[0x7ff4cc009517]
/home/teravyte/gem5/build/RISCV/gem5.opt(+0x17302e5)[0x5652b4bcc2e5]
/home/teravyte/gem5/build/RISCV/gem5.opt(_ZNK4gem523BTBSetAssociativeParams6createEv+0x330)[0x5652b4bcd2c0]
/home/teravyte/gem5/build/RISCV/gem5.opt(+0x173465e)[0x5652b4bd065e]
/home/teravyte/gem5/build/RISCV/gem5.opt(+0xe397ee)[0x5652b42d57ee]
/lib/x86_64-linux-gnu/libpython3.12.so.1.0(+0x1df488)[0x7ff4cd05d488]
/lib/x86_64-linux-gnu/libpython3.12.so.1.0(_PyObject_MakeTpCall+0x8f)[0x7ff4cd0007af]
/lib/x86_64-linux-gnu/libpython3.12.so.1.0(_PyEval_EvalFrameDefault+0x40ee)[0x7ff4ccf9b5ee]
/lib/x86_64-linux-gnu/libpython3.12.so.1.0(PyEval_EvalCode+0x20f)[0x7ff4cd11e86f]
/lib/x86_64-linux-gnu/libpython3.12.so.1.0(+0x29c800)[0x7ff4cd11a800]
/lib/x86_64-linux-gnu/libpython3.12.so.1.0(+0x1dfaac)[0x7ff4cd05daac]
/lib/x86_64-linux-gnu/libpython3.12.so.1.0(PyObject_Vectorcall+0x5c)[0x7ff4cd000afc]
/lib/x86_64-linux-gnu/libpython3.12.so.1.0(_PyEval_EvalFrameDefault+0x40ee)[0x7ff4ccf9b5ee]
/home/teravyte/gem5/build/RISCV/gem5.opt(+0xf5d930)[0x5652b43f9930]
/home/teravyte/gem5/build/RISCV/gem5.opt(main+0x225)[0x5652b42be785]
/lib/x86_64-linux-gnu/libc.so.6(+0x2a1ca)[0x7ff4cbff81ca]
/lib/x86_64-linux-gnu/libc.so.6(__libc_start_main+0x8b)[0x7ff4cbff828b]
/home/teravyte/gem5/build/RISCV/gem5.opt(_start+0x25)[0x5652b42c5135]
--- END LIBC BACKTRACE ---
For more info on how to address this issue, please visit https://www.gem5.org/documentation/general_docs/common-errors/ 


#################################################################
RUNNING associativity=256 AND numEntries=1
Global frequency set at 1000000000000 ticks per second
src/mem/dram_interface.cc:690: warn: DRAM device capacity (8192 Mbytes) does not match the address range assigned (128 Mbytes)
gem5.opt: src/base/intmath.hh:61: constexpr std::enable_if_t<is_integral_v<T>, int> gem5::floorLog2(T) [with T = unsigned int; std::enable_if_t<is_integral_v<T>, int> = int]: Assertion `x > 0' failed.
Program aborted at tick 0
--- BEGIN LIBC BACKTRACE ---
/home/teravyte/gem5/build/RISCV/gem5.opt(_ZN4gem515print_backtraceEv+0x30)[0x55f4252ca660]
/home/teravyte/gem5/build/RISCV/gem5.opt(_ZN4gem512abortHandlerEi+0x4c)[0x55f4252f0f7c]
/lib/x86_64-linux-gnu/libc.so.6(+0x45330)[0x7ff3da8ce330]
/lib/x86_64-linux-gnu/libc.so.6(pthread_kill+0x11c)[0x7ff3da927b2c]
/lib/x86_64-linux-gnu/libc.so.6(gsignal+0x1e)[0x7ff3da8ce27e]
/lib/x86_64-linux-gnu/libc.so.6(abort+0xdf)[0x7ff3da8b18ff]
/lib/x86_64-linux-gnu/libc.so.6(+0x2881b)[0x7ff3da8b181b]
/lib/x86_64-linux-gnu/libc.so.6(+0x3b517)[0x7ff3da8c4517]
/home/teravyte/gem5/build/RISCV/gem5.opt(+0x17302e5)[0x55f4243ea2e5]
/home/teravyte/gem5/build/RISCV/gem5.opt(_ZNK4gem523BTBSetAssociativeParams6createEv+0x330)[0x55f4243eb2c0]
/home/teravyte/gem5/build/RISCV/gem5.opt(+0x173465e)[0x55f4243ee65e]
/home/teravyte/gem5/build/RISCV/gem5.opt(+0xe397ee)[0x55f423af37ee]
/lib/x86_64-linux-gnu/libpython3.12.so.1.0(+0x1df488)[0x7ff3db918488]
/lib/x86_64-linux-gnu/libpython3.12.so.1.0(_PyObject_MakeTpCall+0x8f)[0x7ff3db8bb7af]
/lib/x86_64-linux-gnu/libpython3.12.so.1.0(_PyEval_EvalFrameDefault+0x40ee)[0x7ff3db8565ee]
/lib/x86_64-linux-gnu/libpython3.12.so.1.0(PyEval_EvalCode+0x20f)[0x7ff3db9d986f]
/lib/x86_64-linux-gnu/libpython3.12.so.1.0(+0x29c800)[0x7ff3db9d5800]
/lib/x86_64-linux-gnu/libpython3.12.so.1.0(+0x1dfaac)[0x7ff3db918aac]
/lib/x86_64-linux-gnu/libpython3.12.so.1.0(PyObject_Vectorcall+0x5c)[0x7ff3db8bbafc]
/lib/x86_64-linux-gnu/libpython3.12.so.1.0(_PyEval_EvalFrameDefault+0x40ee)[0x7ff3db8565ee]
/home/teravyte/gem5/build/RISCV/gem5.opt(+0xf5d930)[0x55f423c17930]
/home/teravyte/gem5/build/RISCV/gem5.opt(main+0x225)[0x55f423adc785]
/lib/x86_64-linux-gnu/libc.so.6(+0x2a1ca)[0x7ff3da8b31ca]
/lib/x86_64-linux-gnu/libc.so.6(__libc_start_main+0x8b)[0x7ff3da8b328b]
/home/teravyte/gem5/build/RISCV/gem5.opt(_start+0x25)[0x55f423ae3135]
--- END LIBC BACKTRACE ---
For more info on how to address this issue, please visit https://www.gem5.org/documentation/general_docs/common-errors/ 


#################################################################
RUNNING associativity=512 AND numEntries=1
Global frequency set at 1000000000000 ticks per second
src/mem/dram_interface.cc:690: warn: DRAM device capacity (8192 Mbytes) does not match the address range assigned (128 Mbytes)
gem5.opt: src/base/intmath.hh:61: constexpr std::enable_if_t<is_integral_v<T>, int> gem5::floorLog2(T) [with T = unsigned int; std::enable_if_t<is_integral_v<T>, int> = int]: Assertion `x > 0' failed.
Program aborted at tick 0
--- BEGIN LIBC BACKTRACE ---
/home/teravyte/gem5/build/RISCV/gem5.opt(_ZN4gem515print_backtraceEv+0x30)[0x55e202a8e660]
/home/teravyte/gem5/build/RISCV/gem5.opt(_ZN4gem512abortHandlerEi+0x4c)[0x55e202ab4f7c]
/lib/x86_64-linux-gnu/libc.so.6(+0x45330)[0x7fb218881330]
/lib/x86_64-linux-gnu/libc.so.6(pthread_kill+0x11c)[0x7fb2188dab2c]
/lib/x86_64-linux-gnu/libc.so.6(gsignal+0x1e)[0x7fb21888127e]
/lib/x86_64-linux-gnu/libc.so.6(abort+0xdf)[0x7fb2188648ff]
/lib/x86_64-linux-gnu/libc.so.6(+0x2881b)[0x7fb21886481b]
/lib/x86_64-linux-gnu/libc.so.6(+0x3b517)[0x7fb218877517]
/home/teravyte/gem5/build/RISCV/gem5.opt(+0x17302e5)[0x55e201bae2e5]
/home/teravyte/gem5/build/RISCV/gem5.opt(_ZNK4gem523BTBSetAssociativeParams6createEv+0x330)[0x55e201baf2c0]
/home/teravyte/gem5/build/RISCV/gem5.opt(+0x173465e)[0x55e201bb265e]
/home/teravyte/gem5/build/RISCV/gem5.opt(+0xe397ee)[0x55e2012b77ee]
/lib/x86_64-linux-gnu/libpython3.12.so.1.0(+0x1df488)[0x7fb2198cb488]
/lib/x86_64-linux-gnu/libpython3.12.so.1.0(_PyObject_MakeTpCall+0x8f)[0x7fb21986e7af]
/lib/x86_64-linux-gnu/libpython3.12.so.1.0(_PyEval_EvalFrameDefault+0x40ee)[0x7fb2198095ee]
/lib/x86_64-linux-gnu/libpython3.12.so.1.0(PyEval_EvalCode+0x20f)[0x7fb21998c86f]
/lib/x86_64-linux-gnu/libpython3.12.so.1.0(+0x29c800)[0x7fb219988800]
/lib/x86_64-linux-gnu/libpython3.12.so.1.0(+0x1dfaac)[0x7fb2198cbaac]
/lib/x86_64-linux-gnu/libpython3.12.so.1.0(PyObject_Vectorcall+0x5c)[0x7fb21986eafc]
/lib/x86_64-linux-gnu/libpython3.12.so.1.0(_PyEval_EvalFrameDefault+0x40ee)[0x7fb2198095ee]
/home/teravyte/gem5/build/RISCV/gem5.opt(+0xf5d930)[0x55e2013db930]
/home/teravyte/gem5/build/RISCV/gem5.opt(main+0x225)[0x55e2012a0785]
/lib/x86_64-linux-gnu/libc.so.6(+0x2a1ca)[0x7fb2188661ca]
/lib/x86_64-linux-gnu/libc.so.6(__libc_start_main+0x8b)[0x7fb21886628b]
/home/teravyte/gem5/build/RISCV/gem5.opt(_start+0x25)[0x55e2012a7135]
--- END LIBC BACKTRACE ---
For more info on how to address this issue, please visit https://www.gem5.org/documentation/general_docs/common-errors/ 


#################################################################
RUNNING associativity=1024 AND numEntries=1
Global frequency set at 1000000000000 ticks per second
src/mem/dram_interface.cc:690: warn: DRAM device capacity (8192 Mbytes) does not match the address range assigned (128 Mbytes)
gem5.opt: src/base/intmath.hh:61: constexpr std::enable_if_t<is_integral_v<T>, int> gem5::floorLog2(T) [with T = unsigned int; std::enable_if_t<is_integral_v<T>, int> = int]: Assertion `x > 0' failed.
Program aborted at tick 0
--- BEGIN LIBC BACKTRACE ---
/home/teravyte/gem5/build/RISCV/gem5.opt(_ZN4gem515print_backtraceEv+0x30)[0x5561c4aec660]
/home/teravyte/gem5/build/RISCV/gem5.opt(_ZN4gem512abortHandlerEi+0x4c)[0x5561c4b12f7c]
/lib/x86_64-linux-gnu/libc.so.6(+0x45330)[0x7f530ac44330]
/lib/x86_64-linux-gnu/libc.so.6(pthread_kill+0x11c)[0x7f530ac9db2c]
/lib/x86_64-linux-gnu/libc.so.6(gsignal+0x1e)[0x7f530ac4427e]
/lib/x86_64-linux-gnu/libc.so.6(abort+0xdf)[0x7f530ac278ff]
/lib/x86_64-linux-gnu/libc.so.6(+0x2881b)[0x7f530ac2781b]
/lib/x86_64-linux-gnu/libc.so.6(+0x3b517)[0x7f530ac3a517]
/home/teravyte/gem5/build/RISCV/gem5.opt(+0x17302e5)[0x5561c3c0c2e5]
/home/teravyte/gem5/build/RISCV/gem5.opt(_ZNK4gem523BTBSetAssociativeParams6createEv+0x330)[0x5561c3c0d2c0]
/home/teravyte/gem5/build/RISCV/gem5.opt(+0x173465e)[0x5561c3c1065e]
/home/teravyte/gem5/build/RISCV/gem5.opt(+0xe397ee)[0x5561c33157ee]
/lib/x86_64-linux-gnu/libpython3.12.so.1.0(+0x1df488)[0x7f530bc8e488]
/lib/x86_64-linux-gnu/libpython3.12.so.1.0(_PyObject_MakeTpCall+0x8f)[0x7f530bc317af]
/lib/x86_64-linux-gnu/libpython3.12.so.1.0(_PyEval_EvalFrameDefault+0x40ee)[0x7f530bbcc5ee]
/lib/x86_64-linux-gnu/libpython3.12.so.1.0(PyEval_EvalCode+0x20f)[0x7f530bd4f86f]
/lib/x86_64-linux-gnu/libpython3.12.so.1.0(+0x29c800)[0x7f530bd4b800]
/lib/x86_64-linux-gnu/libpython3.12.so.1.0(+0x1dfaac)[0x7f530bc8eaac]
/lib/x86_64-linux-gnu/libpython3.12.so.1.0(PyObject_Vectorcall+0x5c)[0x7f530bc31afc]
/lib/x86_64-linux-gnu/libpython3.12.so.1.0(_PyEval_EvalFrameDefault+0x40ee)[0x7f530bbcc5ee]
/home/teravyte/gem5/build/RISCV/gem5.opt(+0xf5d930)[0x5561c3439930]
/home/teravyte/gem5/build/RISCV/gem5.opt(main+0x225)[0x5561c32fe785]
/lib/x86_64-linux-gnu/libc.so.6(+0x2a1ca)[0x7f530ac291ca]
/lib/x86_64-linux-gnu/libc.so.6(__libc_start_main+0x8b)[0x7f530ac2928b]
/home/teravyte/gem5/build/RISCV/gem5.opt(_start+0x25)[0x5561c3305135]
--- END LIBC BACKTRACE ---
For more info on how to address this issue, please visit https://www.gem5.org/documentation/general_docs/common-errors/ 


#################################################################
RUNNING associativity=2048 AND numEntries=1
Global frequency set at 1000000000000 ticks per second
src/mem/dram_interface.cc:690: warn: DRAM device capacity (8192 Mbytes) does not match the address range assigned (128 Mbytes)
gem5.opt: src/base/intmath.hh:61: constexpr std::enable_if_t<is_integral_v<T>, int> gem5::floorLog2(T) [with T = unsigned int; std::enable_if_t<is_integral_v<T>, int> = int]: Assertion `x > 0' failed.
Program aborted at tick 0
--- BEGIN LIBC BACKTRACE ---
/home/teravyte/gem5/build/RISCV/gem5.opt(_ZN4gem515print_backtraceEv+0x30)[0x5653419a8660]
/home/teravyte/gem5/build/RISCV/gem5.opt(_ZN4gem512abortHandlerEi+0x4c)[0x5653419cef7c]
/lib/x86_64-linux-gnu/libc.so.6(+0x45330)[0x7f35c0338330]
/lib/x86_64-linux-gnu/libc.so.6(pthread_kill+0x11c)[0x7f35c0391b2c]
/lib/x86_64-linux-gnu/libc.so.6(gsignal+0x1e)[0x7f35c033827e]
/lib/x86_64-linux-gnu/libc.so.6(abort+0xdf)[0x7f35c031b8ff]
/lib/x86_64-linux-gnu/libc.so.6(+0x2881b)[0x7f35c031b81b]
/lib/x86_64-linux-gnu/libc.so.6(+0x3b517)[0x7f35c032e517]
/home/teravyte/gem5/build/RISCV/gem5.opt(+0x17302e5)[0x565340ac82e5]
/home/teravyte/gem5/build/RISCV/gem5.opt(_ZNK4gem523BTBSetAssociativeParams6createEv+0x330)[0x565340ac92c0]
/home/teravyte/gem5/build/RISCV/gem5.opt(+0x173465e)[0x565340acc65e]
/home/teravyte/gem5/build/RISCV/gem5.opt(+0xe397ee)[0x5653401d17ee]
/lib/x86_64-linux-gnu/libpython3.12.so.1.0(+0x1df488)[0x7f35c1382488]
/lib/x86_64-linux-gnu/libpython3.12.so.1.0(_PyObject_MakeTpCall+0x8f)[0x7f35c13257af]
/lib/x86_64-linux-gnu/libpython3.12.so.1.0(_PyEval_EvalFrameDefault+0x40ee)[0x7f35c12c05ee]
/lib/x86_64-linux-gnu/libpython3.12.so.1.0(PyEval_EvalCode+0x20f)[0x7f35c144386f]
/lib/x86_64-linux-gnu/libpython3.12.so.1.0(+0x29c800)[0x7f35c143f800]
/lib/x86_64-linux-gnu/libpython3.12.so.1.0(+0x1dfaac)[0x7f35c1382aac]
/lib/x86_64-linux-gnu/libpython3.12.so.1.0(PyObject_Vectorcall+0x5c)[0x7f35c1325afc]
/lib/x86_64-linux-gnu/libpython3.12.so.1.0(_PyEval_EvalFrameDefault+0x40ee)[0x7f35c12c05ee]
/home/teravyte/gem5/build/RISCV/gem5.opt(+0xf5d930)[0x5653402f5930]
/home/teravyte/gem5/build/RISCV/gem5.opt(main+0x225)[0x5653401ba785]
/lib/x86_64-linux-gnu/libc.so.6(+0x2a1ca)[0x7f35c031d1ca]
/lib/x86_64-linux-gnu/libc.so.6(__libc_start_main+0x8b)[0x7f35c031d28b]
/home/teravyte/gem5/build/RISCV/gem5.opt(_start+0x25)[0x5653401c1135]
--- END LIBC BACKTRACE ---
For more info on how to address this issue, please visit https://www.gem5.org/documentation/general_docs/common-errors/ 


#################################################################
RUNNING associativity=4096 AND numEntries=1
Global frequency set at 1000000000000 ticks per second
src/mem/dram_interface.cc:690: warn: DRAM device capacity (8192 Mbytes) does not match the address range assigned (128 Mbytes)
gem5.opt: src/base/intmath.hh:61: constexpr std::enable_if_t<is_integral_v<T>, int> gem5::floorLog2(T) [with T = unsigned int; std::enable_if_t<is_integral_v<T>, int> = int]: Assertion `x > 0' failed.
Program aborted at tick 0
--- BEGIN LIBC BACKTRACE ---
/home/teravyte/gem5/build/RISCV/gem5.opt(_ZN4gem515print_backtraceEv+0x30)[0x55da03e66660]
/home/teravyte/gem5/build/RISCV/gem5.opt(_ZN4gem512abortHandlerEi+0x4c)[0x55da03e8cf7c]
/lib/x86_64-linux-gnu/libc.so.6(+0x45330)[0x7f5f24b9a330]
/lib/x86_64-linux-gnu/libc.so.6(pthread_kill+0x11c)[0x7f5f24bf3b2c]
/lib/x86_64-linux-gnu/libc.so.6(gsignal+0x1e)[0x7f5f24b9a27e]
/lib/x86_64-linux-gnu/libc.so.6(abort+0xdf)[0x7f5f24b7d8ff]
/lib/x86_64-linux-gnu/libc.so.6(+0x2881b)[0x7f5f24b7d81b]
/lib/x86_64-linux-gnu/libc.so.6(+0x3b517)[0x7f5f24b90517]
/home/teravyte/gem5/build/RISCV/gem5.opt(+0x17302e5)[0x55da02f862e5]
/home/teravyte/gem5/build/RISCV/gem5.opt(_ZNK4gem523BTBSetAssociativeParams6createEv+0x330)[0x55da02f872c0]
/home/teravyte/gem5/build/RISCV/gem5.opt(+0x173465e)[0x55da02f8a65e]
/home/teravyte/gem5/build/RISCV/gem5.opt(+0xe397ee)[0x55da0268f7ee]
/lib/x86_64-linux-gnu/libpython3.12.so.1.0(+0x1df488)[0x7f5f25be4488]
/lib/x86_64-linux-gnu/libpython3.12.so.1.0(_PyObject_MakeTpCall+0x8f)[0x7f5f25b877af]
/lib/x86_64-linux-gnu/libpython3.12.so.1.0(_PyEval_EvalFrameDefault+0x40ee)[0x7f5f25b225ee]
/lib/x86_64-linux-gnu/libpython3.12.so.1.0(PyEval_EvalCode+0x20f)[0x7f5f25ca586f]
/lib/x86_64-linux-gnu/libpython3.12.so.1.0(+0x29c800)[0x7f5f25ca1800]
/lib/x86_64-linux-gnu/libpython3.12.so.1.0(+0x1dfaac)[0x7f5f25be4aac]
/lib/x86_64-linux-gnu/libpython3.12.so.1.0(PyObject_Vectorcall+0x5c)[0x7f5f25b87afc]
/lib/x86_64-linux-gnu/libpython3.12.so.1.0(_PyEval_EvalFrameDefault+0x40ee)[0x7f5f25b225ee]
/home/teravyte/gem5/build/RISCV/gem5.opt(+0xf5d930)[0x55da027b3930]
/home/teravyte/gem5/build/RISCV/gem5.opt(main+0x225)[0x55da02678785]
/lib/x86_64-linux-gnu/libc.so.6(+0x2a1ca)[0x7f5f24b7f1ca]
/lib/x86_64-linux-gnu/libc.so.6(__libc_start_main+0x8b)[0x7f5f24b7f28b]
/home/teravyte/gem5/build/RISCV/gem5.opt(_start+0x25)[0x55da0267f135]
--- END LIBC BACKTRACE ---
For more info on how to address this issue, please visit https://www.gem5.org/documentation/general_docs/common-errors/ 


#################################################################
RUNNING associativity=8192 AND numEntries=1
Global frequency set at 1000000000000 ticks per second
src/mem/dram_interface.cc:690: warn: DRAM device capacity (8192 Mbytes) does not match the address range assigned (128 Mbytes)
gem5.opt: src/base/intmath.hh:61: constexpr std::enable_if_t<is_integral_v<T>, int> gem5::floorLog2(T) [with T = unsigned int; std::enable_if_t<is_integral_v<T>, int> = int]: Assertion `x > 0' failed.
Program aborted at tick 0
--- BEGIN LIBC BACKTRACE ---
/home/teravyte/gem5/build/RISCV/gem5.opt(_ZN4gem515print_backtraceEv+0x30)[0x5601455a2660]
/home/teravyte/gem5/build/RISCV/gem5.opt(_ZN4gem512abortHandlerEi+0x4c)[0x5601455c8f7c]
/lib/x86_64-linux-gnu/libc.so.6(+0x45330)[0x7fa0ae0fc330]
/lib/x86_64-linux-gnu/libc.so.6(pthread_kill+0x11c)[0x7fa0ae155b2c]
/lib/x86_64-linux-gnu/libc.so.6(gsignal+0x1e)[0x7fa0ae0fc27e]
/lib/x86_64-linux-gnu/libc.so.6(abort+0xdf)[0x7fa0ae0df8ff]
/lib/x86_64-linux-gnu/libc.so.6(+0x2881b)[0x7fa0ae0df81b]
/lib/x86_64-linux-gnu/libc.so.6(+0x3b517)[0x7fa0ae0f2517]
/home/teravyte/gem5/build/RISCV/gem5.opt(+0x17302e5)[0x5601446c22e5]
/home/teravyte/gem5/build/RISCV/gem5.opt(_ZNK4gem523BTBSetAssociativeParams6createEv+0x330)[0x5601446c32c0]
/home/teravyte/gem5/build/RISCV/gem5.opt(+0x173465e)[0x5601446c665e]
/home/teravyte/gem5/build/RISCV/gem5.opt(+0xe397ee)[0x560143dcb7ee]
/lib/x86_64-linux-gnu/libpython3.12.so.1.0(+0x1df488)[0x7fa0af146488]
/lib/x86_64-linux-gnu/libpython3.12.so.1.0(_PyObject_MakeTpCall+0x8f)[0x7fa0af0e97af]
/lib/x86_64-linux-gnu/libpython3.12.so.1.0(_PyEval_EvalFrameDefault+0x40ee)[0x7fa0af0845ee]
/lib/x86_64-linux-gnu/libpython3.12.so.1.0(PyEval_EvalCode+0x20f)[0x7fa0af20786f]
/lib/x86_64-linux-gnu/libpython3.12.so.1.0(+0x29c800)[0x7fa0af203800]
/lib/x86_64-linux-gnu/libpython3.12.so.1.0(+0x1dfaac)[0x7fa0af146aac]
/lib/x86_64-linux-gnu/libpython3.12.so.1.0(PyObject_Vectorcall+0x5c)[0x7fa0af0e9afc]
/lib/x86_64-linux-gnu/libpython3.12.so.1.0(_PyEval_EvalFrameDefault+0x40ee)[0x7fa0af0845ee]
/home/teravyte/gem5/build/RISCV/gem5.opt(+0xf5d930)[0x560143eef930]
/home/teravyte/gem5/build/RISCV/gem5.opt(main+0x225)[0x560143db4785]
/lib/x86_64-linux-gnu/libc.so.6(+0x2a1ca)[0x7fa0ae0e11ca]
/lib/x86_64-linux-gnu/libc.so.6(__libc_start_main+0x8b)[0x7fa0ae0e128b]
/home/teravyte/gem5/build/RISCV/gem5.opt(_start+0x25)[0x560143dbb135]
--- END LIBC BACKTRACE ---
For more info on how to address this issue, please visit https://www.gem5.org/documentation/general_docs/common-errors/ 


#################################################################
RUNNING associativity=16384 AND numEntries=1
Global frequency set at 1000000000000 ticks per second
src/mem/dram_interface.cc:690: warn: DRAM device capacity (8192 Mbytes) does not match the address range assigned (128 Mbytes)
gem5.opt: src/base/intmath.hh:61: constexpr std::enable_if_t<is_integral_v<T>, int> gem5::floorLog2(T) [with T = unsigned int; std::enable_if_t<is_integral_v<T>, int> = int]: Assertion `x > 0' failed.
Program aborted at tick 0
--- BEGIN LIBC BACKTRACE ---
/home/teravyte/gem5/build/RISCV/gem5.opt(_ZN4gem515print_backtraceEv+0x30)[0x561afda6e660]
/home/teravyte/gem5/build/RISCV/gem5.opt(_ZN4gem512abortHandlerEi+0x4c)[0x561afda94f7c]
/lib/x86_64-linux-gnu/libc.so.6(+0x45330)[0x7f840958f330]
/lib/x86_64-linux-gnu/libc.so.6(pthread_kill+0x11c)[0x7f84095e8b2c]
/lib/x86_64-linux-gnu/libc.so.6(gsignal+0x1e)[0x7f840958f27e]
/lib/x86_64-linux-gnu/libc.so.6(abort+0xdf)[0x7f84095728ff]
/lib/x86_64-linux-gnu/libc.so.6(+0x2881b)[0x7f840957281b]
/lib/x86_64-linux-gnu/libc.so.6(+0x3b517)[0x7f8409585517]
/home/teravyte/gem5/build/RISCV/gem5.opt(+0x17302e5)[0x561afcb8e2e5]
/home/teravyte/gem5/build/RISCV/gem5.opt(_ZNK4gem523BTBSetAssociativeParams6createEv+0x330)[0x561afcb8f2c0]
/home/teravyte/gem5/build/RISCV/gem5.opt(+0x173465e)[0x561afcb9265e]
/home/teravyte/gem5/build/RISCV/gem5.opt(+0xe397ee)[0x561afc2977ee]
/lib/x86_64-linux-gnu/libpython3.12.so.1.0(+0x1df488)[0x7f840a5d9488]
/lib/x86_64-linux-gnu/libpython3.12.so.1.0(_PyObject_MakeTpCall+0x8f)[0x7f840a57c7af]
/lib/x86_64-linux-gnu/libpython3.12.so.1.0(_PyEval_EvalFrameDefault+0x40ee)[0x7f840a5175ee]
/lib/x86_64-linux-gnu/libpython3.12.so.1.0(PyEval_EvalCode+0x20f)[0x7f840a69a86f]
/lib/x86_64-linux-gnu/libpython3.12.so.1.0(+0x29c800)[0x7f840a696800]
/lib/x86_64-linux-gnu/libpython3.12.so.1.0(+0x1dfaac)[0x7f840a5d9aac]
/lib/x86_64-linux-gnu/libpython3.12.so.1.0(PyObject_Vectorcall+0x5c)[0x7f840a57cafc]
/lib/x86_64-linux-gnu/libpython3.12.so.1.0(_PyEval_EvalFrameDefault+0x40ee)[0x7f840a5175ee]
/home/teravyte/gem5/build/RISCV/gem5.opt(+0xf5d930)[0x561afc3bb930]
/home/teravyte/gem5/build/RISCV/gem5.opt(main+0x225)[0x561afc280785]
/lib/x86_64-linux-gnu/libc.so.6(+0x2a1ca)[0x7f84095741ca]
/lib/x86_64-linux-gnu/libc.so.6(__libc_start_main+0x8b)[0x7f840957428b]
/home/teravyte/gem5/build/RISCV/gem5.opt(_start+0x25)[0x561afc287135]
--- END LIBC BACKTRACE ---
For more info on how to address this issue, please visit https://www.gem5.org/documentation/general_docs/common-errors/ 


#################################################################
RUNNING associativity=32768 AND numEntries=1
Global frequency set at 1000000000000 ticks per second
src/mem/dram_interface.cc:690: warn: DRAM device capacity (8192 Mbytes) does not match the address range assigned (128 Mbytes)
gem5.opt: src/base/intmath.hh:61: constexpr std::enable_if_t<is_integral_v<T>, int> gem5::floorLog2(T) [with T = unsigned int; std::enable_if_t<is_integral_v<T>, int> = int]: Assertion `x > 0' failed.
Program aborted at tick 0
--- BEGIN LIBC BACKTRACE ---
/home/teravyte/gem5/build/RISCV/gem5.opt(_ZN4gem515print_backtraceEv+0x30)[0x5642d6e20660]
/home/teravyte/gem5/build/RISCV/gem5.opt(_ZN4gem512abortHandlerEi+0x4c)[0x5642d6e46f7c]
/lib/x86_64-linux-gnu/libc.so.6(+0x45330)[0x7f0dbf034330]
/lib/x86_64-linux-gnu/libc.so.6(pthread_kill+0x11c)[0x7f0dbf08db2c]
/lib/x86_64-linux-gnu/libc.so.6(gsignal+0x1e)[0x7f0dbf03427e]
/lib/x86_64-linux-gnu/libc.so.6(abort+0xdf)[0x7f0dbf0178ff]
/lib/x86_64-linux-gnu/libc.so.6(+0x2881b)[0x7f0dbf01781b]
/lib/x86_64-linux-gnu/libc.so.6(+0x3b517)[0x7f0dbf02a517]
/home/teravyte/gem5/build/RISCV/gem5.opt(+0x17302e5)[0x5642d5f402e5]
/home/teravyte/gem5/build/RISCV/gem5.opt(_ZNK4gem523BTBSetAssociativeParams6createEv+0x330)[0x5642d5f412c0]
/home/teravyte/gem5/build/RISCV/gem5.opt(+0x173465e)[0x5642d5f4465e]
/home/teravyte/gem5/build/RISCV/gem5.opt(+0xe397ee)[0x5642d56497ee]
/lib/x86_64-linux-gnu/libpython3.12.so.1.0(+0x1df488)[0x7f0dc007e488]
/lib/x86_64-linux-gnu/libpython3.12.so.1.0(_PyObject_MakeTpCall+0x8f)[0x7f0dc00217af]
/lib/x86_64-linux-gnu/libpython3.12.so.1.0(_PyEval_EvalFrameDefault+0x40ee)[0x7f0dbffbc5ee]
/lib/x86_64-linux-gnu/libpython3.12.so.1.0(PyEval_EvalCode+0x20f)[0x7f0dc013f86f]
/lib/x86_64-linux-gnu/libpython3.12.so.1.0(+0x29c800)[0x7f0dc013b800]
/lib/x86_64-linux-gnu/libpython3.12.so.1.0(+0x1dfaac)[0x7f0dc007eaac]
/lib/x86_64-linux-gnu/libpython3.12.so.1.0(PyObject_Vectorcall+0x5c)[0x7f0dc0021afc]
/lib/x86_64-linux-gnu/libpython3.12.so.1.0(_PyEval_EvalFrameDefault+0x40ee)[0x7f0dbffbc5ee]
/home/teravyte/gem5/build/RISCV/gem5.opt(+0xf5d930)[0x5642d576d930]
/home/teravyte/gem5/build/RISCV/gem5.opt(main+0x225)[0x5642d5632785]
/lib/x86_64-linux-gnu/libc.so.6(+0x2a1ca)[0x7f0dbf0191ca]
/lib/x86_64-linux-gnu/libc.so.6(__libc_start_main+0x8b)[0x7f0dbf01928b]
/home/teravyte/gem5/build/RISCV/gem5.opt(_start+0x25)[0x5642d5639135]
--- END LIBC BACKTRACE ---
For more info on how to address this issue, please visit https://www.gem5.org/documentation/general_docs/common-errors/ 


#################################################################
RUNNING associativity=65536 AND numEntries=1
Global frequency set at 1000000000000 ticks per second
src/mem/dram_interface.cc:690: warn: DRAM device capacity (8192 Mbytes) does not match the address range assigned (128 Mbytes)
gem5.opt: src/base/intmath.hh:61: constexpr std::enable_if_t<is_integral_v<T>, int> gem5::floorLog2(T) [with T = unsigned int; std::enable_if_t<is_integral_v<T>, int> = int]: Assertion `x > 0' failed.
Program aborted at tick 0
--- BEGIN LIBC BACKTRACE ---
/home/teravyte/gem5/build/RISCV/gem5.opt(_ZN4gem515print_backtraceEv+0x30)[0x556e8d975660]
/home/teravyte/gem5/build/RISCV/gem5.opt(_ZN4gem512abortHandlerEi+0x4c)[0x556e8d99bf7c]
/lib/x86_64-linux-gnu/libc.so.6(+0x45330)[0x7feaf2a29330]
/lib/x86_64-linux-gnu/libc.so.6(pthread_kill+0x11c)[0x7feaf2a82b2c]
/lib/x86_64-linux-gnu/libc.so.6(gsignal+0x1e)[0x7feaf2a2927e]
/lib/x86_64-linux-gnu/libc.so.6(abort+0xdf)[0x7feaf2a0c8ff]
/lib/x86_64-linux-gnu/libc.so.6(+0x2881b)[0x7feaf2a0c81b]
/lib/x86_64-linux-gnu/libc.so.6(+0x3b517)[0x7feaf2a1f517]
/home/teravyte/gem5/build/RISCV/gem5.opt(+0x17302e5)[0x556e8ca952e5]
/home/teravyte/gem5/build/RISCV/gem5.opt(_ZNK4gem523BTBSetAssociativeParams6createEv+0x330)[0x556e8ca962c0]
/home/teravyte/gem5/build/RISCV/gem5.opt(+0x173465e)[0x556e8ca9965e]
/home/teravyte/gem5/build/RISCV/gem5.opt(+0xe397ee)[0x556e8c19e7ee]
/lib/x86_64-linux-gnu/libpython3.12.so.1.0(+0x1df488)[0x7feaf3a73488]
/lib/x86_64-linux-gnu/libpython3.12.so.1.0(_PyObject_MakeTpCall+0x8f)[0x7feaf3a167af]
/lib/x86_64-linux-gnu/libpython3.12.so.1.0(_PyEval_EvalFrameDefault+0x40ee)[0x7feaf39b15ee]
/lib/x86_64-linux-gnu/libpython3.12.so.1.0(PyEval_EvalCode+0x20f)[0x7feaf3b3486f]
/lib/x86_64-linux-gnu/libpython3.12.so.1.0(+0x29c800)[0x7feaf3b30800]
/lib/x86_64-linux-gnu/libpython3.12.so.1.0(+0x1dfaac)[0x7feaf3a73aac]
/lib/x86_64-linux-gnu/libpython3.12.so.1.0(PyObject_Vectorcall+0x5c)[0x7feaf3a16afc]
/lib/x86_64-linux-gnu/libpython3.12.so.1.0(_PyEval_EvalFrameDefault+0x40ee)[0x7feaf39b15ee]
/home/teravyte/gem5/build/RISCV/gem5.opt(+0xf5d930)[0x556e8c2c2930]
/home/teravyte/gem5/build/RISCV/gem5.opt(main+0x225)[0x556e8c187785]
/lib/x86_64-linux-gnu/libc.so.6(+0x2a1ca)[0x7feaf2a0e1ca]
/lib/x86_64-linux-gnu/libc.so.6(__libc_start_main+0x8b)[0x7feaf2a0e28b]
/home/teravyte/gem5/build/RISCV/gem5.opt(_start+0x25)[0x556e8c18e135]
--- END LIBC BACKTRACE ---
For more info on how to address this issue, please visit https://www.gem5.org/documentation/general_docs/common-errors/ 


#################################################################
RUNNING associativity=1 AND numEntries=2
Global frequency set at 1000000000000 ticks per second
src/mem/dram_interface.cc:690: warn: DRAM device capacity (8192 Mbytes) does not match the address range assigned (128 Mbytes)
src/arch/riscv/isa.cc:279: info: RVV enabled, VLEN = 256 bits, ELEN = 64 bits
src/base/statistics.hh:279: warn: One of the stats is a legacy stat. Legacy stat is a stat that does not belong to any statistics::Group. Legacy stat is deprecated.
system.remote_gdb: Listening for connections on port 7000
gem5 Simulator System.  https://www.gem5.org
gem5 is copyrighted software; use the --copyright option for details.

gem5 version 24.1.0.2
gem5 compiled Mar 17 2025 10:51:38
gem5 started Mar 23 2025 14:20:47
gem5 executing on DESKTOP-64ACR4L, pid 31380
command line: /home/teravyte/gem5/build/RISCV/gem5.opt ooo_core.py --associativity=1 --numEntries=2 /home/teravyte/gapbs/rv64_bfs

Beginning simulation!
src/sim/simulate.cc:199: info: Entering event queue @ 0.  Starting simulation...
src/sim/syscall_emul.cc:97: warn: ignoring syscall set_robust_list(...)
      (further warnings will be suppressed)
src/sim/syscall_emul.hh:1117: warn: readlink() called on '/proc/self/exe' may yield unexpected results in various settings.
      Returning '/home/teravyte/gapbs/rv64_bfs'
src/sim/mem_state.cc:448: info: Increasing stack size by one page.
src/sim/syscall_emul.cc:86: warn: ignoring syscall mprotect(...)
src/sim/mem_state.cc:448: info: Increasing stack size by one page.
src/sim/mem_state.cc:448: info: Increasing stack size by one page.
Generate Time:       0.00359
Build Time:          0.00130
Graph has 1024 nodes and 10496 undirected edges for degree: 10
Trial Time:          0.00009
Trial Time:          0.00008
Trial Time:          0.00008
Trial Time:          0.00007
Trial Time:          0.00008
Average Time:        0.00008
Exiting @ tick 7814473000 because exiting with last active thread context
system.cpu.branchPred.BTBHitRatio            0.295450                       # BTB Hit Ratio (Ratio)

#################################################################
RUNNING associativity=2 AND numEntries=2
Global frequency set at 1000000000000 ticks per second
src/mem/dram_interface.cc:690: warn: DRAM device capacity (8192 Mbytes) does not match the address range assigned (128 Mbytes)
src/arch/riscv/isa.cc:279: info: RVV enabled, VLEN = 256 bits, ELEN = 64 bits
src/base/statistics.hh:279: warn: One of the stats is a legacy stat. Legacy stat is a stat that does not belong to any statistics::Group. Legacy stat is deprecated.
system.remote_gdb: Listening for connections on port 7000
gem5 Simulator System.  https://www.gem5.org
gem5 is copyrighted software; use the --copyright option for details.

gem5 version 24.1.0.2
gem5 compiled Mar 17 2025 10:51:38
gem5 started Mar 23 2025 14:21:13
gem5 executing on DESKTOP-64ACR4L, pid 31471
command line: /home/teravyte/gem5/build/RISCV/gem5.opt ooo_core.py --associativity=2 --numEntries=2 /home/teravyte/gapbs/rv64_bfs

Beginning simulation!
src/sim/simulate.cc:199: info: Entering event queue @ 0.  Starting simulation...
src/sim/syscall_emul.cc:97: warn: ignoring syscall set_robust_list(...)
      (further warnings will be suppressed)
src/sim/syscall_emul.hh:1117: warn: readlink() called on '/proc/self/exe' may yield unexpected results in various settings.
      Returning '/home/teravyte/gapbs/rv64_bfs'
src/sim/mem_state.cc:448: info: Increasing stack size by one page.
src/sim/syscall_emul.cc:86: warn: ignoring syscall mprotect(...)
src/sim/mem_state.cc:448: info: Increasing stack size by one page.
src/sim/mem_state.cc:448: info: Increasing stack size by one page.
Generate Time:       0.00298
Build Time:          0.00131
Graph has 1024 nodes and 10496 undirected edges for degree: 10
Trial Time:          0.00007
Trial Time:          0.00007
Trial Time:          0.00007
Trial Time:          0.00006
Trial Time:          0.00006
Average Time:        0.00007
Exiting @ tick 7076158000 because exiting with last active thread context
system.cpu.branchPred.BTBHitRatio            0.351398                       # BTB Hit Ratio (Ratio)

#################################################################
RUNNING associativity=4 AND numEntries=2
Global frequency set at 1000000000000 ticks per second
src/mem/dram_interface.cc:690: warn: DRAM device capacity (8192 Mbytes) does not match the address range assigned (128 Mbytes)
gem5.opt: src/base/intmath.hh:61: constexpr std::enable_if_t<is_integral_v<T>, int> gem5::floorLog2(T) [with T = unsigned int; std::enable_if_t<is_integral_v<T>, int> = int]: Assertion `x > 0' failed.
Program aborted at tick 0
--- BEGIN LIBC BACKTRACE ---
/home/teravyte/gem5/build/RISCV/gem5.opt(_ZN4gem515print_backtraceEv+0x30)[0x556c1730c660]
/home/teravyte/gem5/build/RISCV/gem5.opt(_ZN4gem512abortHandlerEi+0x4c)[0x556c17332f7c]
/lib/x86_64-linux-gnu/libc.so.6(+0x45330)[0x7f83fb8d1330]
/lib/x86_64-linux-gnu/libc.so.6(pthread_kill+0x11c)[0x7f83fb92ab2c]
/lib/x86_64-linux-gnu/libc.so.6(gsignal+0x1e)[0x7f83fb8d127e]
/lib/x86_64-linux-gnu/libc.so.6(abort+0xdf)[0x7f83fb8b48ff]
/lib/x86_64-linux-gnu/libc.so.6(+0x2881b)[0x7f83fb8b481b]
/lib/x86_64-linux-gnu/libc.so.6(+0x3b517)[0x7f83fb8c7517]
/home/teravyte/gem5/build/RISCV/gem5.opt(+0x17302e5)[0x556c1642c2e5]
/home/teravyte/gem5/build/RISCV/gem5.opt(_ZNK4gem523BTBSetAssociativeParams6createEv+0x330)[0x556c1642d2c0]
/home/teravyte/gem5/build/RISCV/gem5.opt(+0x173465e)[0x556c1643065e]
/home/teravyte/gem5/build/RISCV/gem5.opt(+0xe397ee)[0x556c15b357ee]
/lib/x86_64-linux-gnu/libpython3.12.so.1.0(+0x1df488)[0x7f83fc91b488]
/lib/x86_64-linux-gnu/libpython3.12.so.1.0(_PyObject_MakeTpCall+0x8f)[0x7f83fc8be7af]
/lib/x86_64-linux-gnu/libpython3.12.so.1.0(_PyEval_EvalFrameDefault+0x40ee)[0x7f83fc8595ee]
/lib/x86_64-linux-gnu/libpython3.12.so.1.0(PyEval_EvalCode+0x20f)[0x7f83fc9dc86f]
/lib/x86_64-linux-gnu/libpython3.12.so.1.0(+0x29c800)[0x7f83fc9d8800]
/lib/x86_64-linux-gnu/libpython3.12.so.1.0(+0x1dfaac)[0x7f83fc91baac]
/lib/x86_64-linux-gnu/libpython3.12.so.1.0(PyObject_Vectorcall+0x5c)[0x7f83fc8beafc]
/lib/x86_64-linux-gnu/libpython3.12.so.1.0(_PyEval_EvalFrameDefault+0x40ee)[0x7f83fc8595ee]
/home/teravyte/gem5/build/RISCV/gem5.opt(+0xf5d930)[0x556c15c59930]
/home/teravyte/gem5/build/RISCV/gem5.opt(main+0x225)[0x556c15b1e785]
/lib/x86_64-linux-gnu/libc.so.6(+0x2a1ca)[0x7f83fb8b61ca]
/lib/x86_64-linux-gnu/libc.so.6(__libc_start_main+0x8b)[0x7f83fb8b628b]
/home/teravyte/gem5/build/RISCV/gem5.opt(_start+0x25)[0x556c15b25135]
--- END LIBC BACKTRACE ---
For more info on how to address this issue, please visit https://www.gem5.org/documentation/general_docs/common-errors/ 


#################################################################
RUNNING associativity=8 AND numEntries=2
Global frequency set at 1000000000000 ticks per second
src/mem/dram_interface.cc:690: warn: DRAM device capacity (8192 Mbytes) does not match the address range assigned (128 Mbytes)
gem5.opt: src/base/intmath.hh:61: constexpr std::enable_if_t<is_integral_v<T>, int> gem5::floorLog2(T) [with T = unsigned int; std::enable_if_t<is_integral_v<T>, int> = int]: Assertion `x > 0' failed.
Program aborted at tick 0
--- BEGIN LIBC BACKTRACE ---
/home/teravyte/gem5/build/RISCV/gem5.opt(_ZN4gem515print_backtraceEv+0x30)[0x55de42fe7660]
/home/teravyte/gem5/build/RISCV/gem5.opt(_ZN4gem512abortHandlerEi+0x4c)[0x55de4300df7c]
/lib/x86_64-linux-gnu/libc.so.6(+0x45330)[0x7f52ce357330]
/lib/x86_64-linux-gnu/libc.so.6(pthread_kill+0x11c)[0x7f52ce3b0b2c]
/lib/x86_64-linux-gnu/libc.so.6(gsignal+0x1e)[0x7f52ce35727e]
/lib/x86_64-linux-gnu/libc.so.6(abort+0xdf)[0x7f52ce33a8ff]
/lib/x86_64-linux-gnu/libc.so.6(+0x2881b)[0x7f52ce33a81b]
/lib/x86_64-linux-gnu/libc.so.6(+0x3b517)[0x7f52ce34d517]
/home/teravyte/gem5/build/RISCV/gem5.opt(+0x17302e5)[0x55de421072e5]
/home/teravyte/gem5/build/RISCV/gem5.opt(_ZNK4gem523BTBSetAssociativeParams6createEv+0x330)[0x55de421082c0]
/home/teravyte/gem5/build/RISCV/gem5.opt(+0x173465e)[0x55de4210b65e]
/home/teravyte/gem5/build/RISCV/gem5.opt(+0xe397ee)[0x55de418107ee]
/lib/x86_64-linux-gnu/libpython3.12.so.1.0(+0x1df488)[0x7f52cf3a1488]
/lib/x86_64-linux-gnu/libpython3.12.so.1.0(_PyObject_MakeTpCall+0x8f)[0x7f52cf3447af]
/lib/x86_64-linux-gnu/libpython3.12.so.1.0(_PyEval_EvalFrameDefault+0x40ee)[0x7f52cf2df5ee]
/lib/x86_64-linux-gnu/libpython3.12.so.1.0(PyEval_EvalCode+0x20f)[0x7f52cf46286f]
/lib/x86_64-linux-gnu/libpython3.12.so.1.0(+0x29c800)[0x7f52cf45e800]
/lib/x86_64-linux-gnu/libpython3.12.so.1.0(+0x1dfaac)[0x7f52cf3a1aac]
/lib/x86_64-linux-gnu/libpython3.12.so.1.0(PyObject_Vectorcall+0x5c)[0x7f52cf344afc]
/lib/x86_64-linux-gnu/libpython3.12.so.1.0(_PyEval_EvalFrameDefault+0x40ee)[0x7f52cf2df5ee]
/home/teravyte/gem5/build/RISCV/gem5.opt(+0xf5d930)[0x55de41934930]
/home/teravyte/gem5/build/RISCV/gem5.opt(main+0x225)[0x55de417f9785]
/lib/x86_64-linux-gnu/libc.so.6(+0x2a1ca)[0x7f52ce33c1ca]
/lib/x86_64-linux-gnu/libc.so.6(__libc_start_main+0x8b)[0x7f52ce33c28b]
/home/teravyte/gem5/build/RISCV/gem5.opt(_start+0x25)[0x55de41800135]
--- END LIBC BACKTRACE ---
For more info on how to address this issue, please visit https://www.gem5.org/documentation/general_docs/common-errors/ 


#################################################################
RUNNING associativity=16 AND numEntries=2
Global frequency set at 1000000000000 ticks per second
src/mem/dram_interface.cc:690: warn: DRAM device capacity (8192 Mbytes) does not match the address range assigned (128 Mbytes)
gem5.opt: src/base/intmath.hh:61: constexpr std::enable_if_t<is_integral_v<T>, int> gem5::floorLog2(T) [with T = unsigned int; std::enable_if_t<is_integral_v<T>, int> = int]: Assertion `x > 0' failed.
Program aborted at tick 0
--- BEGIN LIBC BACKTRACE ---
/home/teravyte/gem5/build/RISCV/gem5.opt(_ZN4gem515print_backtraceEv+0x30)[0x558691979660]
/home/teravyte/gem5/build/RISCV/gem5.opt(_ZN4gem512abortHandlerEi+0x4c)[0x55869199ff7c]
/lib/x86_64-linux-gnu/libc.so.6(+0x45330)[0x7f96e28c1330]
/lib/x86_64-linux-gnu/libc.so.6(pthread_kill+0x11c)[0x7f96e291ab2c]
/lib/x86_64-linux-gnu/libc.so.6(gsignal+0x1e)[0x7f96e28c127e]
/lib/x86_64-linux-gnu/libc.so.6(abort+0xdf)[0x7f96e28a48ff]
/lib/x86_64-linux-gnu/libc.so.6(+0x2881b)[0x7f96e28a481b]
/lib/x86_64-linux-gnu/libc.so.6(+0x3b517)[0x7f96e28b7517]
/home/teravyte/gem5/build/RISCV/gem5.opt(+0x17302e5)[0x558690a992e5]
/home/teravyte/gem5/build/RISCV/gem5.opt(_ZNK4gem523BTBSetAssociativeParams6createEv+0x330)[0x558690a9a2c0]
/home/teravyte/gem5/build/RISCV/gem5.opt(+0x173465e)[0x558690a9d65e]
/home/teravyte/gem5/build/RISCV/gem5.opt(+0xe397ee)[0x5586901a27ee]
/lib/x86_64-linux-gnu/libpython3.12.so.1.0(+0x1df488)[0x7f96e390b488]
/lib/x86_64-linux-gnu/libpython3.12.so.1.0(_PyObject_MakeTpCall+0x8f)[0x7f96e38ae7af]
/lib/x86_64-linux-gnu/libpython3.12.so.1.0(_PyEval_EvalFrameDefault+0x40ee)[0x7f96e38495ee]
/lib/x86_64-linux-gnu/libpython3.12.so.1.0(PyEval_EvalCode+0x20f)[0x7f96e39cc86f]
/lib/x86_64-linux-gnu/libpython3.12.so.1.0(+0x29c800)[0x7f96e39c8800]
/lib/x86_64-linux-gnu/libpython3.12.so.1.0(+0x1dfaac)[0x7f96e390baac]
/lib/x86_64-linux-gnu/libpython3.12.so.1.0(PyObject_Vectorcall+0x5c)[0x7f96e38aeafc]
/lib/x86_64-linux-gnu/libpython3.12.so.1.0(_PyEval_EvalFrameDefault+0x40ee)[0x7f96e38495ee]
/home/teravyte/gem5/build/RISCV/gem5.opt(+0xf5d930)[0x5586902c6930]
/home/teravyte/gem5/build/RISCV/gem5.opt(main+0x225)[0x55869018b785]
/lib/x86_64-linux-gnu/libc.so.6(+0x2a1ca)[0x7f96e28a61ca]
/lib/x86_64-linux-gnu/libc.so.6(__libc_start_main+0x8b)[0x7f96e28a628b]
/home/teravyte/gem5/build/RISCV/gem5.opt(_start+0x25)[0x558690192135]
--- END LIBC BACKTRACE ---
For more info on how to address this issue, please visit https://www.gem5.org/documentation/general_docs/common-errors/ 


#################################################################
RUNNING associativity=32 AND numEntries=2
Global frequency set at 1000000000000 ticks per second
src/mem/dram_interface.cc:690: warn: DRAM device capacity (8192 Mbytes) does not match the address range assigned (128 Mbytes)
gem5.opt: src/base/intmath.hh:61: constexpr std::enable_if_t<is_integral_v<T>, int> gem5::floorLog2(T) [with T = unsigned int; std::enable_if_t<is_integral_v<T>, int> = int]: Assertion `x > 0' failed.
Program aborted at tick 0
--- BEGIN LIBC BACKTRACE ---
/home/teravyte/gem5/build/RISCV/gem5.opt(_ZN4gem515print_backtraceEv+0x30)[0x55cd959db660]
/home/teravyte/gem5/build/RISCV/gem5.opt(_ZN4gem512abortHandlerEi+0x4c)[0x55cd95a01f7c]
/lib/x86_64-linux-gnu/libc.so.6(+0x45330)[0x7f105240e330]
/lib/x86_64-linux-gnu/libc.so.6(pthread_kill+0x11c)[0x7f1052467b2c]
/lib/x86_64-linux-gnu/libc.so.6(gsignal+0x1e)[0x7f105240e27e]
/lib/x86_64-linux-gnu/libc.so.6(abort+0xdf)[0x7f10523f18ff]
/lib/x86_64-linux-gnu/libc.so.6(+0x2881b)[0x7f10523f181b]
/lib/x86_64-linux-gnu/libc.so.6(+0x3b517)[0x7f1052404517]
/home/teravyte/gem5/build/RISCV/gem5.opt(+0x17302e5)[0x55cd94afb2e5]
/home/teravyte/gem5/build/RISCV/gem5.opt(_ZNK4gem523BTBSetAssociativeParams6createEv+0x330)[0x55cd94afc2c0]
/home/teravyte/gem5/build/RISCV/gem5.opt(+0x173465e)[0x55cd94aff65e]
/home/teravyte/gem5/build/RISCV/gem5.opt(+0xe397ee)[0x55cd942047ee]
/lib/x86_64-linux-gnu/libpython3.12.so.1.0(+0x1df488)[0x7f1053458488]
/lib/x86_64-linux-gnu/libpython3.12.so.1.0(_PyObject_MakeTpCall+0x8f)[0x7f10533fb7af]
/lib/x86_64-linux-gnu/libpython3.12.so.1.0(_PyEval_EvalFrameDefault+0x40ee)[0x7f10533965ee]
/lib/x86_64-linux-gnu/libpython3.12.so.1.0(PyEval_EvalCode+0x20f)[0x7f105351986f]
/lib/x86_64-linux-gnu/libpython3.12.so.1.0(+0x29c800)[0x7f1053515800]
/lib/x86_64-linux-gnu/libpython3.12.so.1.0(+0x1dfaac)[0x7f1053458aac]
/lib/x86_64-linux-gnu/libpython3.12.so.1.0(PyObject_Vectorcall+0x5c)[0x7f10533fbafc]
/lib/x86_64-linux-gnu/libpython3.12.so.1.0(_PyEval_EvalFrameDefault+0x40ee)[0x7f10533965ee]
/home/teravyte/gem5/build/RISCV/gem5.opt(+0xf5d930)[0x55cd94328930]
/home/teravyte/gem5/build/RISCV/gem5.opt(main+0x225)[0x55cd941ed785]
/lib/x86_64-linux-gnu/libc.so.6(+0x2a1ca)[0x7f10523f31ca]
/lib/x86_64-linux-gnu/libc.so.6(__libc_start_main+0x8b)[0x7f10523f328b]
/home/teravyte/gem5/build/RISCV/gem5.opt(_start+0x25)[0x55cd941f4135]
--- END LIBC BACKTRACE ---
For more info on how to address this issue, please visit https://www.gem5.org/documentation/general_docs/common-errors/ 


#################################################################
RUNNING associativity=64 AND numEntries=2
Global frequency set at 1000000000000 ticks per second
src/mem/dram_interface.cc:690: warn: DRAM device capacity (8192 Mbytes) does not match the address range assigned (128 Mbytes)
gem5.opt: src/base/intmath.hh:61: constexpr std::enable_if_t<is_integral_v<T>, int> gem5::floorLog2(T) [with T = unsigned int; std::enable_if_t<is_integral_v<T>, int> = int]: Assertion `x > 0' failed.
Program aborted at tick 0
--- BEGIN LIBC BACKTRACE ---
/home/teravyte/gem5/build/RISCV/gem5.opt(_ZN4gem515print_backtraceEv+0x30)[0x55b5de564660]
/home/teravyte/gem5/build/RISCV/gem5.opt(_ZN4gem512abortHandlerEi+0x4c)[0x55b5de58af7c]
/lib/x86_64-linux-gnu/libc.so.6(+0x45330)[0x7f443b5b4330]
/lib/x86_64-linux-gnu/libc.so.6(pthread_kill+0x11c)[0x7f443b60db2c]
/lib/x86_64-linux-gnu/libc.so.6(gsignal+0x1e)[0x7f443b5b427e]
/lib/x86_64-linux-gnu/libc.so.6(abort+0xdf)[0x7f443b5978ff]
/lib/x86_64-linux-gnu/libc.so.6(+0x2881b)[0x7f443b59781b]
/lib/x86_64-linux-gnu/libc.so.6(+0x3b517)[0x7f443b5aa517]
/home/teravyte/gem5/build/RISCV/gem5.opt(+0x17302e5)[0x55b5dd6842e5]
/home/teravyte/gem5/build/RISCV/gem5.opt(_ZNK4gem523BTBSetAssociativeParams6createEv+0x330)[0x55b5dd6852c0]
/home/teravyte/gem5/build/RISCV/gem5.opt(+0x173465e)[0x55b5dd68865e]
/home/teravyte/gem5/build/RISCV/gem5.opt(+0xe397ee)[0x55b5dcd8d7ee]
/lib/x86_64-linux-gnu/libpython3.12.so.1.0(+0x1df488)[0x7f443c5fe488]
/lib/x86_64-linux-gnu/libpython3.12.so.1.0(_PyObject_MakeTpCall+0x8f)[0x7f443c5a17af]
/lib/x86_64-linux-gnu/libpython3.12.so.1.0(_PyEval_EvalFrameDefault+0x40ee)[0x7f443c53c5ee]
/lib/x86_64-linux-gnu/libpython3.12.so.1.0(PyEval_EvalCode+0x20f)[0x7f443c6bf86f]
/lib/x86_64-linux-gnu/libpython3.12.so.1.0(+0x29c800)[0x7f443c6bb800]
/lib/x86_64-linux-gnu/libpython3.12.so.1.0(+0x1dfaac)[0x7f443c5feaac]
/lib/x86_64-linux-gnu/libpython3.12.so.1.0(PyObject_Vectorcall+0x5c)[0x7f443c5a1afc]
/lib/x86_64-linux-gnu/libpython3.12.so.1.0(_PyEval_EvalFrameDefault+0x40ee)[0x7f443c53c5ee]
/home/teravyte/gem5/build/RISCV/gem5.opt(+0xf5d930)[0x55b5dceb1930]
/home/teravyte/gem5/build/RISCV/gem5.opt(main+0x225)[0x55b5dcd76785]
/lib/x86_64-linux-gnu/libc.so.6(+0x2a1ca)[0x7f443b5991ca]
/lib/x86_64-linux-gnu/libc.so.6(__libc_start_main+0x8b)[0x7f443b59928b]
/home/teravyte/gem5/build/RISCV/gem5.opt(_start+0x25)[0x55b5dcd7d135]
--- END LIBC BACKTRACE ---
For more info on how to address this issue, please visit https://www.gem5.org/documentation/general_docs/common-errors/ 


#################################################################
RUNNING associativity=128 AND numEntries=2
Global frequency set at 1000000000000 ticks per second
src/mem/dram_interface.cc:690: warn: DRAM device capacity (8192 Mbytes) does not match the address range assigned (128 Mbytes)
gem5.opt: src/base/intmath.hh:61: constexpr std::enable_if_t<is_integral_v<T>, int> gem5::floorLog2(T) [with T = unsigned int; std::enable_if_t<is_integral_v<T>, int> = int]: Assertion `x > 0' failed.
Program aborted at tick 0
--- BEGIN LIBC BACKTRACE ---
/home/teravyte/gem5/build/RISCV/gem5.opt(_ZN4gem515print_backtraceEv+0x30)[0x55f317c46660]
/home/teravyte/gem5/build/RISCV/gem5.opt(_ZN4gem512abortHandlerEi+0x4c)[0x55f317c6cf7c]
/lib/x86_64-linux-gnu/libc.so.6(+0x45330)[0x7ff8d6614330]
/lib/x86_64-linux-gnu/libc.so.6(pthread_kill+0x11c)[0x7ff8d666db2c]
/lib/x86_64-linux-gnu/libc.so.6(gsignal+0x1e)[0x7ff8d661427e]
/lib/x86_64-linux-gnu/libc.so.6(abort+0xdf)[0x7ff8d65f78ff]
/lib/x86_64-linux-gnu/libc.so.6(+0x2881b)[0x7ff8d65f781b]
/lib/x86_64-linux-gnu/libc.so.6(+0x3b517)[0x7ff8d660a517]
/home/teravyte/gem5/build/RISCV/gem5.opt(+0x17302e5)[0x55f316d662e5]
/home/teravyte/gem5/build/RISCV/gem5.opt(_ZNK4gem523BTBSetAssociativeParams6createEv+0x330)[0x55f316d672c0]
/home/teravyte/gem5/build/RISCV/gem5.opt(+0x173465e)[0x55f316d6a65e]
/home/teravyte/gem5/build/RISCV/gem5.opt(+0xe397ee)[0x55f31646f7ee]
/lib/x86_64-linux-gnu/libpython3.12.so.1.0(+0x1df488)[0x7ff8d765e488]
/lib/x86_64-linux-gnu/libpython3.12.so.1.0(_PyObject_MakeTpCall+0x8f)[0x7ff8d76017af]
/lib/x86_64-linux-gnu/libpython3.12.so.1.0(_PyEval_EvalFrameDefault+0x40ee)[0x7ff8d759c5ee]
/lib/x86_64-linux-gnu/libpython3.12.so.1.0(PyEval_EvalCode+0x20f)[0x7ff8d771f86f]
/lib/x86_64-linux-gnu/libpython3.12.so.1.0(+0x29c800)[0x7ff8d771b800]
/lib/x86_64-linux-gnu/libpython3.12.so.1.0(+0x1dfaac)[0x7ff8d765eaac]
/lib/x86_64-linux-gnu/libpython3.12.so.1.0(PyObject_Vectorcall+0x5c)[0x7ff8d7601afc]
/lib/x86_64-linux-gnu/libpython3.12.so.1.0(_PyEval_EvalFrameDefault+0x40ee)[0x7ff8d759c5ee]
/home/teravyte/gem5/build/RISCV/gem5.opt(+0xf5d930)[0x55f316593930]
/home/teravyte/gem5/build/RISCV/gem5.opt(main+0x225)[0x55f316458785]
/lib/x86_64-linux-gnu/libc.so.6(+0x2a1ca)[0x7ff8d65f91ca]
/lib/x86_64-linux-gnu/libc.so.6(__libc_start_main+0x8b)[0x7ff8d65f928b]
/home/teravyte/gem5/build/RISCV/gem5.opt(_start+0x25)[0x55f31645f135]
--- END LIBC BACKTRACE ---
For more info on how to address this issue, please visit https://www.gem5.org/documentation/general_docs/common-errors/ 


#################################################################
RUNNING associativity=256 AND numEntries=2
Global frequency set at 1000000000000 ticks per second
src/mem/dram_interface.cc:690: warn: DRAM device capacity (8192 Mbytes) does not match the address range assigned (128 Mbytes)
gem5.opt: src/base/intmath.hh:61: constexpr std::enable_if_t<is_integral_v<T>, int> gem5::floorLog2(T) [with T = unsigned int; std::enable_if_t<is_integral_v<T>, int> = int]: Assertion `x > 0' failed.
Program aborted at tick 0
--- BEGIN LIBC BACKTRACE ---
/home/teravyte/gem5/build/RISCV/gem5.opt(_ZN4gem515print_backtraceEv+0x30)[0x5599495b2660]
/home/teravyte/gem5/build/RISCV/gem5.opt(_ZN4gem512abortHandlerEi+0x4c)[0x5599495d8f7c]
/lib/x86_64-linux-gnu/libc.so.6(+0x45330)[0x7f01f9828330]
/lib/x86_64-linux-gnu/libc.so.6(pthread_kill+0x11c)[0x7f01f9881b2c]
/lib/x86_64-linux-gnu/libc.so.6(gsignal+0x1e)[0x7f01f982827e]
/lib/x86_64-linux-gnu/libc.so.6(abort+0xdf)[0x7f01f980b8ff]
/lib/x86_64-linux-gnu/libc.so.6(+0x2881b)[0x7f01f980b81b]
/lib/x86_64-linux-gnu/libc.so.6(+0x3b517)[0x7f01f981e517]
/home/teravyte/gem5/build/RISCV/gem5.opt(+0x17302e5)[0x5599486d22e5]
/home/teravyte/gem5/build/RISCV/gem5.opt(_ZNK4gem523BTBSetAssociativeParams6createEv+0x330)[0x5599486d32c0]
/home/teravyte/gem5/build/RISCV/gem5.opt(+0x173465e)[0x5599486d665e]
/home/teravyte/gem5/build/RISCV/gem5.opt(+0xe397ee)[0x559947ddb7ee]
/lib/x86_64-linux-gnu/libpython3.12.so.1.0(+0x1df488)[0x7f01fa872488]
/lib/x86_64-linux-gnu/libpython3.12.so.1.0(_PyObject_MakeTpCall+0x8f)[0x7f01fa8157af]
/lib/x86_64-linux-gnu/libpython3.12.so.1.0(_PyEval_EvalFrameDefault+0x40ee)[0x7f01fa7b05ee]
/lib/x86_64-linux-gnu/libpython3.12.so.1.0(PyEval_EvalCode+0x20f)[0x7f01fa93386f]
/lib/x86_64-linux-gnu/libpython3.12.so.1.0(+0x29c800)[0x7f01fa92f800]
/lib/x86_64-linux-gnu/libpython3.12.so.1.0(+0x1dfaac)[0x7f01fa872aac]
/lib/x86_64-linux-gnu/libpython3.12.so.1.0(PyObject_Vectorcall+0x5c)[0x7f01fa815afc]
/lib/x86_64-linux-gnu/libpython3.12.so.1.0(_PyEval_EvalFrameDefault+0x40ee)[0x7f01fa7b05ee]
/home/teravyte/gem5/build/RISCV/gem5.opt(+0xf5d930)[0x559947eff930]
/home/teravyte/gem5/build/RISCV/gem5.opt(main+0x225)[0x559947dc4785]
/lib/x86_64-linux-gnu/libc.so.6(+0x2a1ca)[0x7f01f980d1ca]
/lib/x86_64-linux-gnu/libc.so.6(__libc_start_main+0x8b)[0x7f01f980d28b]
/home/teravyte/gem5/build/RISCV/gem5.opt(_start+0x25)[0x559947dcb135]
--- END LIBC BACKTRACE ---
For more info on how to address this issue, please visit https://www.gem5.org/documentation/general_docs/common-errors/ 


#################################################################
RUNNING associativity=512 AND numEntries=2
Global frequency set at 1000000000000 ticks per second
src/mem/dram_interface.cc:690: warn: DRAM device capacity (8192 Mbytes) does not match the address range assigned (128 Mbytes)
gem5.opt: src/base/intmath.hh:61: constexpr std::enable_if_t<is_integral_v<T>, int> gem5::floorLog2(T) [with T = unsigned int; std::enable_if_t<is_integral_v<T>, int> = int]: Assertion `x > 0' failed.
Program aborted at tick 0
--- BEGIN LIBC BACKTRACE ---
/home/teravyte/gem5/build/RISCV/gem5.opt(_ZN4gem515print_backtraceEv+0x30)[0x56096b0c5660]
/home/teravyte/gem5/build/RISCV/gem5.opt(_ZN4gem512abortHandlerEi+0x4c)[0x56096b0ebf7c]
/lib/x86_64-linux-gnu/libc.so.6(+0x45330)[0x7fb1640ba330]
/lib/x86_64-linux-gnu/libc.so.6(pthread_kill+0x11c)[0x7fb164113b2c]
/lib/x86_64-linux-gnu/libc.so.6(gsignal+0x1e)[0x7fb1640ba27e]
/lib/x86_64-linux-gnu/libc.so.6(abort+0xdf)[0x7fb16409d8ff]
/lib/x86_64-linux-gnu/libc.so.6(+0x2881b)[0x7fb16409d81b]
/lib/x86_64-linux-gnu/libc.so.6(+0x3b517)[0x7fb1640b0517]
/home/teravyte/gem5/build/RISCV/gem5.opt(+0x17302e5)[0x56096a1e52e5]
/home/teravyte/gem5/build/RISCV/gem5.opt(_ZNK4gem523BTBSetAssociativeParams6createEv+0x330)[0x56096a1e62c0]
/home/teravyte/gem5/build/RISCV/gem5.opt(+0x173465e)[0x56096a1e965e]
/home/teravyte/gem5/build/RISCV/gem5.opt(+0xe397ee)[0x5609698ee7ee]
/lib/x86_64-linux-gnu/libpython3.12.so.1.0(+0x1df488)[0x7fb165104488]
/lib/x86_64-linux-gnu/libpython3.12.so.1.0(_PyObject_MakeTpCall+0x8f)[0x7fb1650a77af]
/lib/x86_64-linux-gnu/libpython3.12.so.1.0(_PyEval_EvalFrameDefault+0x40ee)[0x7fb1650425ee]
/lib/x86_64-linux-gnu/libpython3.12.so.1.0(PyEval_EvalCode+0x20f)[0x7fb1651c586f]
/lib/x86_64-linux-gnu/libpython3.12.so.1.0(+0x29c800)[0x7fb1651c1800]
/lib/x86_64-linux-gnu/libpython3.12.so.1.0(+0x1dfaac)[0x7fb165104aac]
/lib/x86_64-linux-gnu/libpython3.12.so.1.0(PyObject_Vectorcall+0x5c)[0x7fb1650a7afc]
/lib/x86_64-linux-gnu/libpython3.12.so.1.0(_PyEval_EvalFrameDefault+0x40ee)[0x7fb1650425ee]
/home/teravyte/gem5/build/RISCV/gem5.opt(+0xf5d930)[0x560969a12930]
/home/teravyte/gem5/build/RISCV/gem5.opt(main+0x225)[0x5609698d7785]
/lib/x86_64-linux-gnu/libc.so.6(+0x2a1ca)[0x7fb16409f1ca]
/lib/x86_64-linux-gnu/libc.so.6(__libc_start_main+0x8b)[0x7fb16409f28b]
/home/teravyte/gem5/build/RISCV/gem5.opt(_start+0x25)[0x5609698de135]
--- END LIBC BACKTRACE ---
For more info on how to address this issue, please visit https://www.gem5.org/documentation/general_docs/common-errors/ 


#################################################################
RUNNING associativity=1024 AND numEntries=2
Global frequency set at 1000000000000 ticks per second
src/mem/dram_interface.cc:690: warn: DRAM device capacity (8192 Mbytes) does not match the address range assigned (128 Mbytes)
gem5.opt: src/base/intmath.hh:61: constexpr std::enable_if_t<is_integral_v<T>, int> gem5::floorLog2(T) [with T = unsigned int; std::enable_if_t<is_integral_v<T>, int> = int]: Assertion `x > 0' failed.
Program aborted at tick 0
--- BEGIN LIBC BACKTRACE ---
/home/teravyte/gem5/build/RISCV/gem5.opt(_ZN4gem515print_backtraceEv+0x30)[0x562c45111660]
/home/teravyte/gem5/build/RISCV/gem5.opt(_ZN4gem512abortHandlerEi+0x4c)[0x562c45137f7c]
/lib/x86_64-linux-gnu/libc.so.6(+0x45330)[0x7f15f726a330]
/lib/x86_64-linux-gnu/libc.so.6(pthread_kill+0x11c)[0x7f15f72c3b2c]
/lib/x86_64-linux-gnu/libc.so.6(gsignal+0x1e)[0x7f15f726a27e]
/lib/x86_64-linux-gnu/libc.so.6(abort+0xdf)[0x7f15f724d8ff]
/lib/x86_64-linux-gnu/libc.so.6(+0x2881b)[0x7f15f724d81b]
/lib/x86_64-linux-gnu/libc.so.6(+0x3b517)[0x7f15f7260517]
/home/teravyte/gem5/build/RISCV/gem5.opt(+0x17302e5)[0x562c442312e5]
/home/teravyte/gem5/build/RISCV/gem5.opt(_ZNK4gem523BTBSetAssociativeParams6createEv+0x330)[0x562c442322c0]
/home/teravyte/gem5/build/RISCV/gem5.opt(+0x173465e)[0x562c4423565e]
/home/teravyte/gem5/build/RISCV/gem5.opt(+0xe397ee)[0x562c4393a7ee]
/lib/x86_64-linux-gnu/libpython3.12.so.1.0(+0x1df488)[0x7f15f82b4488]
/lib/x86_64-linux-gnu/libpython3.12.so.1.0(_PyObject_MakeTpCall+0x8f)[0x7f15f82577af]
/lib/x86_64-linux-gnu/libpython3.12.so.1.0(_PyEval_EvalFrameDefault+0x40ee)[0x7f15f81f25ee]
/lib/x86_64-linux-gnu/libpython3.12.so.1.0(PyEval_EvalCode+0x20f)[0x7f15f837586f]
/lib/x86_64-linux-gnu/libpython3.12.so.1.0(+0x29c800)[0x7f15f8371800]
/lib/x86_64-linux-gnu/libpython3.12.so.1.0(+0x1dfaac)[0x7f15f82b4aac]
/lib/x86_64-linux-gnu/libpython3.12.so.1.0(PyObject_Vectorcall+0x5c)[0x7f15f8257afc]
/lib/x86_64-linux-gnu/libpython3.12.so.1.0(_PyEval_EvalFrameDefault+0x40ee)[0x7f15f81f25ee]
/home/teravyte/gem5/build/RISCV/gem5.opt(+0xf5d930)[0x562c43a5e930]
/home/teravyte/gem5/build/RISCV/gem5.opt(main+0x225)[0x562c43923785]
/lib/x86_64-linux-gnu/libc.so.6(+0x2a1ca)[0x7f15f724f1ca]
/lib/x86_64-linux-gnu/libc.so.6(__libc_start_main+0x8b)[0x7f15f724f28b]
/home/teravyte/gem5/build/RISCV/gem5.opt(_start+0x25)[0x562c4392a135]
--- END LIBC BACKTRACE ---
For more info on how to address this issue, please visit https://www.gem5.org/documentation/general_docs/common-errors/ 


#################################################################
RUNNING associativity=2048 AND numEntries=2
Global frequency set at 1000000000000 ticks per second
src/mem/dram_interface.cc:690: warn: DRAM device capacity (8192 Mbytes) does not match the address range assigned (128 Mbytes)
gem5.opt: src/base/intmath.hh:61: constexpr std::enable_if_t<is_integral_v<T>, int> gem5::floorLog2(T) [with T = unsigned int; std::enable_if_t<is_integral_v<T>, int> = int]: Assertion `x > 0' failed.
Program aborted at tick 0
--- BEGIN LIBC BACKTRACE ---
/home/teravyte/gem5/build/RISCV/gem5.opt(_ZN4gem515print_backtraceEv+0x30)[0x5603ddbd9660]
/home/teravyte/gem5/build/RISCV/gem5.opt(_ZN4gem512abortHandlerEi+0x4c)[0x5603ddbfff7c]
/lib/x86_64-linux-gnu/libc.so.6(+0x45330)[0x7f2acf942330]
/lib/x86_64-linux-gnu/libc.so.6(pthread_kill+0x11c)[0x7f2acf99bb2c]
/lib/x86_64-linux-gnu/libc.so.6(gsignal+0x1e)[0x7f2acf94227e]
/lib/x86_64-linux-gnu/libc.so.6(abort+0xdf)[0x7f2acf9258ff]
/lib/x86_64-linux-gnu/libc.so.6(+0x2881b)[0x7f2acf92581b]
/lib/x86_64-linux-gnu/libc.so.6(+0x3b517)[0x7f2acf938517]
/home/teravyte/gem5/build/RISCV/gem5.opt(+0x17302e5)[0x5603dccf92e5]
/home/teravyte/gem5/build/RISCV/gem5.opt(_ZNK4gem523BTBSetAssociativeParams6createEv+0x330)[0x5603dccfa2c0]
/home/teravyte/gem5/build/RISCV/gem5.opt(+0x173465e)[0x5603dccfd65e]
/home/teravyte/gem5/build/RISCV/gem5.opt(+0xe397ee)[0x5603dc4027ee]
/lib/x86_64-linux-gnu/libpython3.12.so.1.0(+0x1df488)[0x7f2ad098c488]
/lib/x86_64-linux-gnu/libpython3.12.so.1.0(_PyObject_MakeTpCall+0x8f)[0x7f2ad092f7af]
/lib/x86_64-linux-gnu/libpython3.12.so.1.0(_PyEval_EvalFrameDefault+0x40ee)[0x7f2ad08ca5ee]
/lib/x86_64-linux-gnu/libpython3.12.so.1.0(PyEval_EvalCode+0x20f)[0x7f2ad0a4d86f]
/lib/x86_64-linux-gnu/libpython3.12.so.1.0(+0x29c800)[0x7f2ad0a49800]
/lib/x86_64-linux-gnu/libpython3.12.so.1.0(+0x1dfaac)[0x7f2ad098caac]
/lib/x86_64-linux-gnu/libpython3.12.so.1.0(PyObject_Vectorcall+0x5c)[0x7f2ad092fafc]
/lib/x86_64-linux-gnu/libpython3.12.so.1.0(_PyEval_EvalFrameDefault+0x40ee)[0x7f2ad08ca5ee]
/home/teravyte/gem5/build/RISCV/gem5.opt(+0xf5d930)[0x5603dc526930]
/home/teravyte/gem5/build/RISCV/gem5.opt(main+0x225)[0x5603dc3eb785]
/lib/x86_64-linux-gnu/libc.so.6(+0x2a1ca)[0x7f2acf9271ca]
/lib/x86_64-linux-gnu/libc.so.6(__libc_start_main+0x8b)[0x7f2acf92728b]
/home/teravyte/gem5/build/RISCV/gem5.opt(_start+0x25)[0x5603dc3f2135]
--- END LIBC BACKTRACE ---
For more info on how to address this issue, please visit https://www.gem5.org/documentation/general_docs/common-errors/ 


#################################################################
RUNNING associativity=4096 AND numEntries=2
Global frequency set at 1000000000000 ticks per second
src/mem/dram_interface.cc:690: warn: DRAM device capacity (8192 Mbytes) does not match the address range assigned (128 Mbytes)
gem5.opt: src/base/intmath.hh:61: constexpr std::enable_if_t<is_integral_v<T>, int> gem5::floorLog2(T) [with T = unsigned int; std::enable_if_t<is_integral_v<T>, int> = int]: Assertion `x > 0' failed.
Program aborted at tick 0
--- BEGIN LIBC BACKTRACE ---
/home/teravyte/gem5/build/RISCV/gem5.opt(_ZN4gem515print_backtraceEv+0x30)[0x563c1a40d660]
/home/teravyte/gem5/build/RISCV/gem5.opt(_ZN4gem512abortHandlerEi+0x4c)[0x563c1a433f7c]
/lib/x86_64-linux-gnu/libc.so.6(+0x45330)[0x7f441d083330]
/lib/x86_64-linux-gnu/libc.so.6(pthread_kill+0x11c)[0x7f441d0dcb2c]
/lib/x86_64-linux-gnu/libc.so.6(gsignal+0x1e)[0x7f441d08327e]
/lib/x86_64-linux-gnu/libc.so.6(abort+0xdf)[0x7f441d0668ff]
/lib/x86_64-linux-gnu/libc.so.6(+0x2881b)[0x7f441d06681b]
/lib/x86_64-linux-gnu/libc.so.6(+0x3b517)[0x7f441d079517]
/home/teravyte/gem5/build/RISCV/gem5.opt(+0x17302e5)[0x563c1952d2e5]
/home/teravyte/gem5/build/RISCV/gem5.opt(_ZNK4gem523BTBSetAssociativeParams6createEv+0x330)[0x563c1952e2c0]
/home/teravyte/gem5/build/RISCV/gem5.opt(+0x173465e)[0x563c1953165e]
/home/teravyte/gem5/build/RISCV/gem5.opt(+0xe397ee)[0x563c18c367ee]
/lib/x86_64-linux-gnu/libpython3.12.so.1.0(+0x1df488)[0x7f441e0cd488]
/lib/x86_64-linux-gnu/libpython3.12.so.1.0(_PyObject_MakeTpCall+0x8f)[0x7f441e0707af]
/lib/x86_64-linux-gnu/libpython3.12.so.1.0(_PyEval_EvalFrameDefault+0x40ee)[0x7f441e00b5ee]
/lib/x86_64-linux-gnu/libpython3.12.so.1.0(PyEval_EvalCode+0x20f)[0x7f441e18e86f]
/lib/x86_64-linux-gnu/libpython3.12.so.1.0(+0x29c800)[0x7f441e18a800]
/lib/x86_64-linux-gnu/libpython3.12.so.1.0(+0x1dfaac)[0x7f441e0cdaac]
/lib/x86_64-linux-gnu/libpython3.12.so.1.0(PyObject_Vectorcall+0x5c)[0x7f441e070afc]
/lib/x86_64-linux-gnu/libpython3.12.so.1.0(_PyEval_EvalFrameDefault+0x40ee)[0x7f441e00b5ee]
/home/teravyte/gem5/build/RISCV/gem5.opt(+0xf5d930)[0x563c18d5a930]
/home/teravyte/gem5/build/RISCV/gem5.opt(main+0x225)[0x563c18c1f785]
/lib/x86_64-linux-gnu/libc.so.6(+0x2a1ca)[0x7f441d0681ca]
/lib/x86_64-linux-gnu/libc.so.6(__libc_start_main+0x8b)[0x7f441d06828b]
/home/teravyte/gem5/build/RISCV/gem5.opt(_start+0x25)[0x563c18c26135]
--- END LIBC BACKTRACE ---
For more info on how to address this issue, please visit https://www.gem5.org/documentation/general_docs/common-errors/ 


#################################################################
RUNNING associativity=8192 AND numEntries=2
Global frequency set at 1000000000000 ticks per second
src/mem/dram_interface.cc:690: warn: DRAM device capacity (8192 Mbytes) does not match the address range assigned (128 Mbytes)
gem5.opt: src/base/intmath.hh:61: constexpr std::enable_if_t<is_integral_v<T>, int> gem5::floorLog2(T) [with T = unsigned int; std::enable_if_t<is_integral_v<T>, int> = int]: Assertion `x > 0' failed.
Program aborted at tick 0
--- BEGIN LIBC BACKTRACE ---
/home/teravyte/gem5/build/RISCV/gem5.opt(_ZN4gem515print_backtraceEv+0x30)[0x5642d79c2660]
/home/teravyte/gem5/build/RISCV/gem5.opt(_ZN4gem512abortHandlerEi+0x4c)[0x5642d79e8f7c]
/lib/x86_64-linux-gnu/libc.so.6(+0x45330)[0x7f4e6dcf9330]
/lib/x86_64-linux-gnu/libc.so.6(pthread_kill+0x11c)[0x7f4e6dd52b2c]
/lib/x86_64-linux-gnu/libc.so.6(gsignal+0x1e)[0x7f4e6dcf927e]
/lib/x86_64-linux-gnu/libc.so.6(abort+0xdf)[0x7f4e6dcdc8ff]
/lib/x86_64-linux-gnu/libc.so.6(+0x2881b)[0x7f4e6dcdc81b]
/lib/x86_64-linux-gnu/libc.so.6(+0x3b517)[0x7f4e6dcef517]
/home/teravyte/gem5/build/RISCV/gem5.opt(+0x17302e5)[0x5642d6ae22e5]
/home/teravyte/gem5/build/RISCV/gem5.opt(_ZNK4gem523BTBSetAssociativeParams6createEv+0x330)[0x5642d6ae32c0]
/home/teravyte/gem5/build/RISCV/gem5.opt(+0x173465e)[0x5642d6ae665e]
/home/teravyte/gem5/build/RISCV/gem5.opt(+0xe397ee)[0x5642d61eb7ee]
/lib/x86_64-linux-gnu/libpython3.12.so.1.0(+0x1df488)[0x7f4e6ed43488]
/lib/x86_64-linux-gnu/libpython3.12.so.1.0(_PyObject_MakeTpCall+0x8f)[0x7f4e6ece67af]
/lib/x86_64-linux-gnu/libpython3.12.so.1.0(_PyEval_EvalFrameDefault+0x40ee)[0x7f4e6ec815ee]
/lib/x86_64-linux-gnu/libpython3.12.so.1.0(PyEval_EvalCode+0x20f)[0x7f4e6ee0486f]
/lib/x86_64-linux-gnu/libpython3.12.so.1.0(+0x29c800)[0x7f4e6ee00800]
/lib/x86_64-linux-gnu/libpython3.12.so.1.0(+0x1dfaac)[0x7f4e6ed43aac]
/lib/x86_64-linux-gnu/libpython3.12.so.1.0(PyObject_Vectorcall+0x5c)[0x7f4e6ece6afc]
/lib/x86_64-linux-gnu/libpython3.12.so.1.0(_PyEval_EvalFrameDefault+0x40ee)[0x7f4e6ec815ee]
/home/teravyte/gem5/build/RISCV/gem5.opt(+0xf5d930)[0x5642d630f930]
/home/teravyte/gem5/build/RISCV/gem5.opt(main+0x225)[0x5642d61d4785]
/lib/x86_64-linux-gnu/libc.so.6(+0x2a1ca)[0x7f4e6dcde1ca]
/lib/x86_64-linux-gnu/libc.so.6(__libc_start_main+0x8b)[0x7f4e6dcde28b]
/home/teravyte/gem5/build/RISCV/gem5.opt(_start+0x25)[0x5642d61db135]
--- END LIBC BACKTRACE ---
For more info on how to address this issue, please visit https://www.gem5.org/documentation/general_docs/common-errors/ 


#################################################################
RUNNING associativity=16384 AND numEntries=2
Global frequency set at 1000000000000 ticks per second
src/mem/dram_interface.cc:690: warn: DRAM device capacity (8192 Mbytes) does not match the address range assigned (128 Mbytes)
gem5.opt: src/base/intmath.hh:61: constexpr std::enable_if_t<is_integral_v<T>, int> gem5::floorLog2(T) [with T = unsigned int; std::enable_if_t<is_integral_v<T>, int> = int]: Assertion `x > 0' failed.
Program aborted at tick 0
--- BEGIN LIBC BACKTRACE ---
/home/teravyte/gem5/build/RISCV/gem5.opt(_ZN4gem515print_backtraceEv+0x30)[0x556b2f4bd660]
/home/teravyte/gem5/build/RISCV/gem5.opt(_ZN4gem512abortHandlerEi+0x4c)[0x556b2f4e3f7c]
/lib/x86_64-linux-gnu/libc.so.6(+0x45330)[0x7f17f76c4330]
/lib/x86_64-linux-gnu/libc.so.6(pthread_kill+0x11c)[0x7f17f771db2c]
/lib/x86_64-linux-gnu/libc.so.6(gsignal+0x1e)[0x7f17f76c427e]
/lib/x86_64-linux-gnu/libc.so.6(abort+0xdf)[0x7f17f76a78ff]
/lib/x86_64-linux-gnu/libc.so.6(+0x2881b)[0x7f17f76a781b]
/lib/x86_64-linux-gnu/libc.so.6(+0x3b517)[0x7f17f76ba517]
/home/teravyte/gem5/build/RISCV/gem5.opt(+0x17302e5)[0x556b2e5dd2e5]
/home/teravyte/gem5/build/RISCV/gem5.opt(_ZNK4gem523BTBSetAssociativeParams6createEv+0x330)[0x556b2e5de2c0]
/home/teravyte/gem5/build/RISCV/gem5.opt(+0x173465e)[0x556b2e5e165e]
/home/teravyte/gem5/build/RISCV/gem5.opt(+0xe397ee)[0x556b2dce67ee]
/lib/x86_64-linux-gnu/libpython3.12.so.1.0(+0x1df488)[0x7f17f870e488]
/lib/x86_64-linux-gnu/libpython3.12.so.1.0(_PyObject_MakeTpCall+0x8f)[0x7f17f86b17af]
/lib/x86_64-linux-gnu/libpython3.12.so.1.0(_PyEval_EvalFrameDefault+0x40ee)[0x7f17f864c5ee]
/lib/x86_64-linux-gnu/libpython3.12.so.1.0(PyEval_EvalCode+0x20f)[0x7f17f87cf86f]
/lib/x86_64-linux-gnu/libpython3.12.so.1.0(+0x29c800)[0x7f17f87cb800]
/lib/x86_64-linux-gnu/libpython3.12.so.1.0(+0x1dfaac)[0x7f17f870eaac]
/lib/x86_64-linux-gnu/libpython3.12.so.1.0(PyObject_Vectorcall+0x5c)[0x7f17f86b1afc]
/lib/x86_64-linux-gnu/libpython3.12.so.1.0(_PyEval_EvalFrameDefault+0x40ee)[0x7f17f864c5ee]
/home/teravyte/gem5/build/RISCV/gem5.opt(+0xf5d930)[0x556b2de0a930]
/home/teravyte/gem5/build/RISCV/gem5.opt(main+0x225)[0x556b2dccf785]
/lib/x86_64-linux-gnu/libc.so.6(+0x2a1ca)[0x7f17f76a91ca]
/lib/x86_64-linux-gnu/libc.so.6(__libc_start_main+0x8b)[0x7f17f76a928b]
/home/teravyte/gem5/build/RISCV/gem5.opt(_start+0x25)[0x556b2dcd6135]
--- END LIBC BACKTRACE ---
For more info on how to address this issue, please visit https://www.gem5.org/documentation/general_docs/common-errors/ 


#################################################################
[...]
      (further warnings will be suppressed)
src/sim/syscall_emul.hh:1117: warn: readlink() called on '/proc/self/exe' may yield unexpected results in various settings.
      Returning '/home/teravyte/gapbs/rv64_bfs'
src/sim/mem_state.cc:448: info: Increasing stack size by one page.
src/sim/syscall_emul.cc:86: warn: ignoring syscall mprotect(...)
src/sim/mem_state.cc:448: info: Increasing stack size by one page.
src/sim/mem_state.cc:448: info: Increasing stack size by one page.
Generate Time:       0.00223
Build Time:          0.00130
Graph has 1024 nodes and 10496 undirected edges for degree: 10
Trial Time:          0.00008
Trial Time:          0.00007
Trial Time:          0.00006
Trial Time:          0.00006
Trial Time:          0.00006
Average Time:        0.00006
Exiting @ tick 5811016500 because exiting with last active thread context
system.cpu.branchPred.BTBHitRatio            0.924342                       # BTB Hit Ratio (Ratio)

#################################################################
RUNNING associativity=256 AND numEntries=65536
Global frequency set at 1000000000000 ticks per second
src/mem/dram_interface.cc:690: warn: DRAM device capacity (8192 Mbytes) does not match the address range assigned (128 Mbytes)
src/arch/riscv/isa.cc:279: info: RVV enabled, VLEN = 256 bits, ELEN = 64 bits
src/base/statistics.hh:279: warn: One of the stats is a legacy stat. Legacy stat is a stat that does not belong to any statistics::Group. Legacy stat is deprecated.
system.remote_gdb: Listening for connections on port 7000
gem5 Simulator System.  https://www.gem5.org
gem5 is copyrighted software; use the --copyright option for details.

gem5 version 24.1.0.2
gem5 compiled Mar 17 2025 10:51:38
gem5 started Mar 23 2025 15:14:53
gem5 executing on DESKTOP-64ACR4L, pid 34372
command line: /home/teravyte/gem5/build/RISCV/gem5.opt ooo_core.py --associativity=256 --numEntries=65536 /home/teravyte/gapbs/rv64_bfs

Beginning simulation!
src/sim/simulate.cc:199: info: Entering event queue @ 0.  Starting simulation...
src/sim/syscall_emul.cc:97: warn: ignoring syscall set_robust_list(...)
      (further warnings will be suppressed)
src/sim/syscall_emul.hh:1117: warn: readlink() called on '/proc/self/exe' may yield unexpected results in various settings.
      Returning '/home/teravyte/gapbs/rv64_bfs'
src/sim/mem_state.cc:448: info: Increasing stack size by one page.
src/sim/syscall_emul.cc:86: warn: ignoring syscall mprotect(...)
src/sim/mem_state.cc:448: info: Increasing stack size by one page.
src/sim/mem_state.cc:448: info: Increasing stack size by one page.
Generate Time:       0.00223
Build Time:          0.00130
Graph has 1024 nodes and 10496 undirected edges for degree: 10
Trial Time:          0.00008
Trial Time:          0.00007
Trial Time:          0.00006
Trial Time:          0.00006
Trial Time:          0.00006
Average Time:        0.00006
Exiting @ tick 5807019500 because exiting with last active thread context
system.cpu.branchPred.BTBHitRatio            0.924482                       # BTB Hit Ratio (Ratio)

#################################################################
RUNNING associativity=512 AND numEntries=65536
Global frequency set at 1000000000000 ticks per second
src/mem/dram_interface.cc:690: warn: DRAM device capacity (8192 Mbytes) does not match the address range assigned (128 Mbytes)
src/arch/riscv/isa.cc:279: info: RVV enabled, VLEN = 256 bits, ELEN = 64 bits
src/base/statistics.hh:279: warn: One of the stats is a legacy stat. Legacy stat is a stat that does not belong to any statistics::Group. Legacy stat is deprecated.
system.remote_gdb: Listening for connections on port 7000
gem5 Simulator System.  https://www.gem5.org
gem5 is copyrighted software; use the --copyright option for details.

gem5 version 24.1.0.2
gem5 compiled Mar 17 2025 10:51:38
gem5 started Mar 23 2025 15:15:14
gem5 executing on DESKTOP-64ACR4L, pid 34387
command line: /home/teravyte/gem5/build/RISCV/gem5.opt ooo_core.py --associativity=512 --numEntries=65536 /home/teravyte/gapbs/rv64_bfs

Beginning simulation!
src/sim/simulate.cc:199: info: Entering event queue @ 0.  Starting simulation...
src/sim/syscall_emul.cc:97: warn: ignoring syscall set_robust_list(...)
      (further warnings will be suppressed)
src/sim/syscall_emul.hh:1117: warn: readlink() called on '/proc/self/exe' may yield unexpected results in various settings.
      Returning '/home/teravyte/gapbs/rv64_bfs'
src/sim/mem_state.cc:448: info: Increasing stack size by one page.
src/sim/syscall_emul.cc:86: warn: ignoring syscall mprotect(...)
src/sim/mem_state.cc:448: info: Increasing stack size by one page.
src/sim/mem_state.cc:448: info: Increasing stack size by one page.
Generate Time:       0.00223
Build Time:          0.00130
Graph has 1024 nodes and 10496 undirected edges for degree: 10
Trial Time:          0.00008
Trial Time:          0.00006
Trial Time:          0.00006
Trial Time:          0.00005
Trial Time:          0.00006
Average Time:        0.00006
Exiting @ tick 5798105500 because exiting with last active thread context
system.cpu.branchPred.BTBHitRatio            0.924278                       # BTB Hit Ratio (Ratio)

#################################################################
RUNNING associativity=1024 AND numEntries=65536
Global frequency set at 1000000000000 ticks per second
src/mem/dram_interface.cc:690: warn: DRAM device capacity (8192 Mbytes) does not match the address range assigned (128 Mbytes)
src/arch/riscv/isa.cc:279: info: RVV enabled, VLEN = 256 bits, ELEN = 64 bits
src/base/statistics.hh:279: warn: One of the stats is a legacy stat. Legacy stat is a stat that does not belong to any statistics::Group. Legacy stat is deprecated.
system.remote_gdb: Listening for connections on port 7000
gem5 Simulator System.  https://www.gem5.org
gem5 is copyrighted software; use the --copyright option for details.

gem5 version 24.1.0.2
gem5 compiled Mar 17 2025 10:51:38
gem5 started Mar 23 2025 15:15:34
gem5 executing on DESKTOP-64ACR4L, pid 34394
command line: /home/teravyte/gem5/build/RISCV/gem5.opt ooo_core.py --associativity=1024 --numEntries=65536 /home/teravyte/gapbs/rv64_bfs

Beginning simulation!
src/sim/simulate.cc:199: info: Entering event queue @ 0.  Starting simulation...
src/sim/syscall_emul.cc:97: warn: ignoring syscall set_robust_list(...)
      (further warnings will be suppressed)
src/sim/syscall_emul.hh:1117: warn: readlink() called on '/proc/self/exe' may yield unexpected results in various settings.
      Returning '/home/teravyte/gapbs/rv64_bfs'
src/sim/mem_state.cc:448: info: Increasing stack size by one page.
src/sim/syscall_emul.cc:86: warn: ignoring syscall mprotect(...)
src/sim/mem_state.cc:448: info: Increasing stack size by one page.
src/sim/mem_state.cc:448: info: Increasing stack size by one page.
Generate Time:       0.00223
Build Time:          0.00130
Graph has 1024 nodes and 10496 undirected edges for degree: 10
Trial Time:          0.00008
Trial Time:          0.00007
Trial Time:          0.00006
Trial Time:          0.00006
Trial Time:          0.00006
Average Time:        0.00006
Exiting @ tick 5800445000 because exiting with last active thread context
system.cpu.branchPred.BTBHitRatio            0.924237                       # BTB Hit Ratio (Ratio)

#################################################################
RUNNING associativity=2048 AND numEntries=65536
Global frequency set at 1000000000000 ticks per second
src/mem/dram_interface.cc:690: warn: DRAM device capacity (8192 Mbytes) does not match the address range assigned (128 Mbytes)
src/arch/riscv/isa.cc:279: info: RVV enabled, VLEN = 256 bits, ELEN = 64 bits
src/base/statistics.hh:279: warn: One of the stats is a legacy stat. Legacy stat is a stat that does not belong to any statistics::Group. Legacy stat is deprecated.
system.remote_gdb: Listening for connections on port 7000
gem5 Simulator System.  https://www.gem5.org
gem5 is copyrighted software; use the --copyright option for details.

gem5 version 24.1.0.2
gem5 compiled Mar 17 2025 10:51:38
gem5 started Mar 23 2025 15:15:54
gem5 executing on DESKTOP-64ACR4L, pid 34401
command line: /home/teravyte/gem5/build/RISCV/gem5.opt ooo_core.py --associativity=2048 --numEntries=65536 /home/teravyte/gapbs/rv64_bfs

Beginning simulation!
src/sim/simulate.cc:199: info: Entering event queue @ 0.  Starting simulation...
src/sim/syscall_emul.cc:97: warn: ignoring syscall set_robust_list(...)
      (further warnings will be suppressed)
src/sim/syscall_emul.hh:1117: warn: readlink() called on '/proc/self/exe' may yield unexpected results in various settings.
      Returning '/home/teravyte/gapbs/rv64_bfs'
src/sim/mem_state.cc:448: info: Increasing stack size by one page.
src/sim/syscall_emul.cc:86: warn: ignoring syscall mprotect(...)
src/sim/mem_state.cc:448: info: Increasing stack size by one page.
src/sim/mem_state.cc:448: info: Increasing stack size by one page.
Generate Time:       0.00223
Build Time:          0.00130
Graph has 1024 nodes and 10496 undirected edges for degree: 10
Trial Time:          0.00008
Trial Time:          0.00007
Trial Time:          0.00006
Trial Time:          0.00005
Trial Time:          0.00006
Average Time:        0.00006
Exiting @ tick 5798418500 because exiting with last active thread context
system.cpu.branchPred.BTBHitRatio            0.924011                       # BTB Hit Ratio (Ratio)

#################################################################
RUNNING associativity=4096 AND numEntries=65536
Global frequency set at 1000000000000 ticks per second
src/mem/dram_interface.cc:690: warn: DRAM device capacity (8192 Mbytes) does not match the address range assigned (128 Mbytes)
src/arch/riscv/isa.cc:279: info: RVV enabled, VLEN = 256 bits, ELEN = 64 bits
src/base/statistics.hh:279: warn: One of the stats is a legacy stat. Legacy stat is a stat that does not belong to any statistics::Group. Legacy stat is deprecated.
system.remote_gdb: Listening for connections on port 7000
gem5 Simulator System.  https://www.gem5.org
gem5 is copyrighted software; use the --copyright option for details.

gem5 version 24.1.0.2
gem5 compiled Mar 17 2025 10:51:38
gem5 started Mar 23 2025 15:16:17
gem5 executing on DESKTOP-64ACR4L, pid 34414
command line: /home/teravyte/gem5/build/RISCV/gem5.opt ooo_core.py --associativity=4096 --numEntries=65536 /home/teravyte/gapbs/rv64_bfs

Beginning simulation!
src/sim/simulate.cc:199: info: Entering event queue @ 0.  Starting simulation...
src/sim/syscall_emul.cc:97: warn: ignoring syscall set_robust_list(...)
      (further warnings will be suppressed)
src/sim/syscall_emul.hh:1117: warn: readlink() called on '/proc/self/exe' may yield unexpected results in various settings.
      Returning '/home/teravyte/gapbs/rv64_bfs'
src/sim/mem_state.cc:448: info: Increasing stack size by one page.
src/sim/syscall_emul.cc:86: warn: ignoring syscall mprotect(...)
src/sim/mem_state.cc:448: info: Increasing stack size by one page.
src/sim/mem_state.cc:448: info: Increasing stack size by one page.
Generate Time:       0.00223
Build Time:          0.00130
Graph has 1024 nodes and 10496 undirected edges for degree: 10
Trial Time:          0.00008
Trial Time:          0.00007
Trial Time:          0.00006
Trial Time:          0.00005
Trial Time:          0.00006
Average Time:        0.00006
Exiting @ tick 5791802500 because exiting with last active thread context
system.cpu.branchPred.BTBHitRatio            0.923461                       # BTB Hit Ratio (Ratio)

#################################################################
RUNNING associativity=8192 AND numEntries=65536
Global frequency set at 1000000000000 ticks per second
src/mem/dram_interface.cc:690: warn: DRAM device capacity (8192 Mbytes) does not match the address range assigned (128 Mbytes)
src/arch/riscv/isa.cc:279: info: RVV enabled, VLEN = 256 bits, ELEN = 64 bits
src/base/statistics.hh:279: warn: One of the stats is a legacy stat. Legacy stat is a stat that does not belong to any statistics::Group. Legacy stat is deprecated.
system.remote_gdb: Listening for connections on port 7000
gem5 Simulator System.  https://www.gem5.org
gem5 is copyrighted software; use the --copyright option for details.

gem5 version 24.1.0.2
gem5 compiled Mar 17 2025 10:51:38
gem5 started Mar 23 2025 15:16:46
gem5 executing on DESKTOP-64ACR4L, pid 34421
command line: /home/teravyte/gem5/build/RISCV/gem5.opt ooo_core.py --associativity=8192 --numEntries=65536 /home/teravyte/gapbs/rv64_bfs

Beginning simulation!
src/sim/simulate.cc:199: info: Entering event queue @ 0.  Starting simulation...
src/sim/syscall_emul.cc:97: warn: ignoring syscall set_robust_list(...)
      (further warnings will be suppressed)
src/sim/syscall_emul.hh:1117: warn: readlink() called on '/proc/self/exe' may yield unexpected results in various settings.
      Returning '/home/teravyte/gapbs/rv64_bfs'
src/sim/mem_state.cc:448: info: Increasing stack size by one page.
src/sim/syscall_emul.cc:86: warn: ignoring syscall mprotect(...)
src/sim/mem_state.cc:448: info: Increasing stack size by one page.
src/sim/mem_state.cc:448: info: Increasing stack size by one page.
Generate Time:       0.00223
Build Time:          0.00130
Graph has 1024 nodes and 10496 undirected edges for degree: 10
Trial Time:          0.00008
Trial Time:          0.00007
Trial Time:          0.00006
Trial Time:          0.00006
Trial Time:          0.00006
Average Time:        0.00006
Exiting @ tick 5799849000 because exiting with last active thread context
system.cpu.branchPred.BTBHitRatio            0.924266                       # BTB Hit Ratio (Ratio)

#################################################################
RUNNING associativity=16384 AND numEntries=65536
Global frequency set at 1000000000000 ticks per second
src/mem/dram_interface.cc:690: warn: DRAM device capacity (8192 Mbytes) does not match the address range assigned (128 Mbytes)
src/arch/riscv/isa.cc:279: info: RVV enabled, VLEN = 256 bits, ELEN = 64 bits
src/base/statistics.hh:279: warn: One of the stats is a legacy stat. Legacy stat is a stat that does not belong to any statistics::Group. Legacy stat is deprecated.
system.remote_gdb: Listening for connections on port 7000
gem5 Simulator System.  https://www.gem5.org
gem5 is copyrighted software; use the --copyright option for details.

gem5 version 24.1.0.2
gem5 compiled Mar 17 2025 10:51:38
gem5 started Mar 23 2025 15:17:28
gem5 executing on DESKTOP-64ACR4L, pid 34437
command line: /home/teravyte/gem5/build/RISCV/gem5.opt ooo_core.py --associativity=16384 --numEntries=65536 /home/teravyte/gapbs/rv64_bfs

Beginning simulation!
src/sim/simulate.cc:199: info: Entering event queue @ 0.  Starting simulation...
src/sim/syscall_emul.cc:97: warn: ignoring syscall set_robust_list(...)
      (further warnings will be suppressed)
src/sim/syscall_emul.hh:1117: warn: readlink() called on '/proc/self/exe' may yield unexpected results in various settings.
      Returning '/home/teravyte/gapbs/rv64_bfs'
src/sim/mem_state.cc:448: info: Increasing stack size by one page.
src/sim/syscall_emul.cc:86: warn: ignoring syscall mprotect(...)
src/sim/mem_state.cc:448: info: Increasing stack size by one page.
src/sim/mem_state.cc:448: info: Increasing stack size by one page.
Generate Time:       0.00223
Build Time:          0.00130
Graph has 1024 nodes and 10496 undirected edges for degree: 10
Trial Time:          0.00008
Trial Time:          0.00007
Trial Time:          0.00006
Trial Time:          0.00005
Trial Time:          0.00006
Average Time:        0.00006
Exiting @ tick 5795786500 because exiting with last active thread context
system.cpu.branchPred.BTBHitRatio            0.923641                       # BTB Hit Ratio (Ratio)

#################################################################
RUNNING associativity=32768 AND numEntries=65536
Global frequency set at 1000000000000 ticks per second
src/mem/dram_interface.cc:690: warn: DRAM device capacity (8192 Mbytes) does not match the address range assigned (128 Mbytes)
src/arch/riscv/isa.cc:279: info: RVV enabled, VLEN = 256 bits, ELEN = 64 bits
src/base/statistics.hh:279: warn: One of the stats is a legacy stat. Legacy stat is a stat that does not belong to any statistics::Group. Legacy stat is deprecated.
system.remote_gdb: Listening for connections on port 7000
gem5 Simulator System.  https://www.gem5.org
gem5 is copyrighted software; use the --copyright option for details.

gem5 version 24.1.0.2
gem5 compiled Mar 17 2025 10:51:38
gem5 started Mar 23 2025 15:18:32
gem5 executing on DESKTOP-64ACR4L, pid 34450
command line: /home/teravyte/gem5/build/RISCV/gem5.opt ooo_core.py --associativity=32768 --numEntries=65536 /home/teravyte/gapbs/rv64_bfs

Beginning simulation!
src/sim/simulate.cc:199: info: Entering event queue @ 0.  Starting simulation...
src/sim/syscall_emul.cc:97: warn: ignoring syscall set_robust_list(...)
      (further warnings will be suppressed)
src/sim/syscall_emul.hh:1117: warn: readlink() called on '/proc/self/exe' may yield unexpected results in various settings.
      Returning '/home/teravyte/gapbs/rv64_bfs'
src/sim/mem_state.cc:448: info: Increasing stack size by one page.
src/sim/syscall_emul.cc:86: warn: ignoring syscall mprotect(...)
src/sim/mem_state.cc:448: info: Increasing stack size by one page.
src/sim/mem_state.cc:448: info: Increasing stack size by one page.
Generate Time:       0.00223
Build Time:          0.00130
Graph has 1024 nodes and 10496 undirected edges for degree: 10
Trial Time:          0.00008
Trial Time:          0.00007
Trial Time:          0.00006
Trial Time:          0.00006
Trial Time:          0.00006
Average Time:        0.00006
Exiting @ tick 5803192500 because exiting with last active thread context
system.cpu.branchPred.BTBHitRatio            0.924019                       # BTB Hit Ratio (Ratio)

#################################################################
RUNNING associativity=65536 AND numEntries=65536
Global frequency set at 1000000000000 ticks per second
src/mem/dram_interface.cc:690: warn: DRAM device capacity (8192 Mbytes) does not match the address range assigned (128 Mbytes)
src/arch/riscv/isa.cc:279: info: RVV enabled, VLEN = 256 bits, ELEN = 64 bits
src/base/statistics.hh:279: warn: One of the stats is a legacy stat. Legacy stat is a stat that does not belong to any statistics::Group. Legacy stat is deprecated.
system.remote_gdb: Listening for connections on port 7000
gem5 Simulator System.  https://www.gem5.org
gem5 is copyrighted software; use the --copyright option for details.

gem5 version 24.1.0.2
gem5 compiled Mar 17 2025 10:51:38
gem5 started Mar 23 2025 15:20:23
gem5 executing on DESKTOP-64ACR4L, pid 34538
command line: /home/teravyte/gem5/build/RISCV/gem5.opt ooo_core.py --associativity=65536 --numEntries=65536 /home/teravyte/gapbs/rv64_bfs

Beginning simulation!
src/sim/simulate.cc:199: info: Entering event queue @ 0.  Starting simulation...
src/sim/syscall_emul.cc:97: warn: ignoring syscall set_robust_list(...)
      (further warnings will be suppressed)
src/sim/syscall_emul.hh:1117: warn: readlink() called on '/proc/self/exe' may yield unexpected results in various settings.
      Returning '/home/teravyte/gapbs/rv64_bfs'
src/sim/mem_state.cc:448: info: Increasing stack size by one page.
src/sim/syscall_emul.cc:86: warn: ignoring syscall mprotect(...)
src/sim/mem_state.cc:448: info: Increasing stack size by one page.
src/sim/mem_state.cc:448: info: Increasing stack size by one page.
Generate Time:       0.00223
Build Time:          0.00130
Graph has 1024 nodes and 10496 undirected edges for degree: 10
Trial Time:          0.00008
Trial Time:          0.00007
Trial Time:          0.00006
Trial Time:          0.00005
Trial Time:          0.00006
Average Time:        0.00006
Exiting @ tick 5798299500 because exiting with last active thread context
system.cpu.branchPred.BTBHitRatio            0.924243                       # BTB Hit Ratio (Ratio)

